/*---------------------------------------------------------------------------*\
  =========                 |
  \\      /  F ield         | OpenFOAM: The Open Source CFD Toolbox
   \\    /   O peration     | Website:  https://openfoam.org
    \\  /    A nd           | Version:  6
     \\/     M anipulation  |
\*---------------------------------------------------------------------------*/
Build  : 6-47517f2ebb1b
Exec   : /home/foam/OpenFOAM-6/platforms/linux64GccDPInt32Opt/bin/simpleFoam -case /home/foam/OpenFoamTool/openFOAMTool/example/pitzDaily
Date   : Nov 05 2021
Time   : 10:21:46
Host   : "fomaVM"
PID    : 118330
I/O    : uncollated
Case   : /home/foam/OpenFoamTool/openFOAMTool/example/pitzDaily
nProcs : 1
sigFpe : Enabling floating point exception trapping (FOAM_SIGFPE).
fileModificationChecking : Monitoring run-time modified files using timeStampMaster (fileModificationSkew 10)
allowSystemOperations : Allowing user-supplied system call operations

// * * * * * * * * * * * * * * * * * * * * * * * * * * * * * * * * * * * * * //
Create time

Create mesh for time = 0



SIMPLE: Convergence criteria found
        p: tolerance 0.01
        U: tolerance 0.001
        "(k|epsilon|omega|f|v2)": tolerance 0.001


Reading field p

Reading field U

Reading/calculating face flux field phi

Selecting incompressible transport model Newtonian
Selecting turbulence model type RAS
Selecting RAS turbulence model kEpsilon
RAS
{
    RASModel        kEpsilon;
    turbulence      on;
    printCoeffs     on;
    Cmu             0.09;
    C1              1.44;
    C2              1.92;
    C3              0;
    sigmak          1;
    sigmaEps        1.3;
}

No MRF models present


No finite volume options present

Starting time loop


streamLine streamlines:
    automatic track length specified through number of sub cycles : 5


Time = 1


smoothSolver:  Solving for Ux, Initial residual = 1, Final residual = 0.0538101, No Iterations 1

smoothSolver:  Solving for Uy, Initial residual = 1, Final residual = 0.030925, No Iterations 2

GAMG:  Solving for p, Initial residual = 1, Final residual = 0.068427, No Iterations 17

time step continuity errors : sum local = 1.19733, global = 0.179883, cumulative = 0.179883
smoothSolver:  Solving for epsilon, Initial residual = 0.23288, Final residual = 0.0114612, No Iterations 3
bounding epsilon, min: -1.98669 max: 1033.28 average: 35.8884

smoothSolver:  Solving for k, Initial residual = 1, Final residual = 0.0454552, No Iterations 3

ExecutionTime = 0.12 s  ClockTime = 1 s

Time = 2

smoothSolver:  Solving for Ux, Initial residual = 0.438346, Final residual = 0.0305667, No Iterations 5

smoothSolver:  Solving for Uy, Initial residual = 0.290564, Final residual = 0.0257883, No Iterations 4

GAMG:  Solving for p, Initial residual = 0.0522496, Final residual = 0.00435174, No Iterations 15

time step continuity errors : sum local = 3.97186, global = 0.123248, cumulative = 0.303131
smoothSolver:  Solving for epsilon, Initial residual = 0.176548, Final residual = 0.010301, No Iterations 3
bounding epsilon, min: -10.4236 max: 23808.9 average: 70.8793

smoothSolver:  Solving for k, Initial residual = 0.436479, Final residual = 0.0394786, No Iterations 3
ExecutionTime = 0.14 s  ClockTime = 1 s

Time = 3


smoothSolver:  Solving for Ux, Initial residual = 0.1242, Final residual = 0.0111197, No Iterations 4

smoothSolver:  Solving for Uy, Initial residual = 0.216892, Final residual = 0.0156466, No Iterations 4
GAMG:  Solving for p, Initial residual = 0.14275, Final residual = 0.0119489, No Iterations 6
time step continuity errors : sum local = 3.34307, global = 0.328383, cumulative = 0.631514
smoothSolver:  Solving for epsilon, Initial residual = 0.175551, Final residual = 0.00809994, No Iterations 2
bounding epsilon, min: -898.39 max: 45796.5 average: 117.634
smoothSolver:  Solving for k, Initial residual = 0.191738, Final residual = 0.0156143, No Iterations 3
ExecutionTime = 0.16 s  ClockTime = 1 s

Time = 4


smoothSolver:  Solving for Ux, Initial residual = 0.0677471, Final residual = 0.00434826, No Iterations 5
smoothSolver:  Solving for Uy, Initial residual = 0.10749, Final residual = 0.00821448, No Iterations 4

GAMG:  Solving for p, Initial residual = 0.1061, Final residual = 0.0105576, No Iterations 6

time step continuity errors : sum local = 1.74649, global = 0.177143, cumulative = 0.808657

smoothSolver:  Solving for epsilon, Initial residual = 0.0706245, Final residual = 0.00578441, No Iterations 2
bounding epsilon, min: -172.106 max: 53276.8 average: 128.968

smoothSolver:  Solving for k, Initial residual = 0.124758, Final residual = 0.0111285, No Iterations 3
ExecutionTime = 0.18 s  ClockTime = 1 s

Time = 5


smoothSolver:  Solving for Ux, Initial residual = 0.0568147, Final residual = 0.00396887, No Iterations 5
smoothSolver:  Solving for Uy, Initial residual = 0.0866067, Final residual = 0.00827391, No Iterations 4

GAMG:  Solving for p, Initial residual = 0.104689, Final residual = 0.00807946, No Iterations 4
time step continuity errors : sum local = 1.02737, global = 0.0926034, cumulative = 0.90126
smoothSolver:  Solving for epsilon, Initial residual = 0.0924311, Final residual = 0.00558155, No Iterations 2
smoothSolver:  Solving for k, Initial residual = 0.0862603, Final residual = 0.00509212, No Iterations 4
ExecutionTime = 0.19 s  ClockTime = 1 s

Time = 6

smoothSolver:  Solving for Ux, Initial residual = 0.0518443, Final residual = 0.0038966, No Iterations 5
smoothSolver:  Solving for Uy, Initial residual = 0.072437, Final residual = 0.00491558, No Iterations 5

GAMG:  Solving for p, Initial residual = 0.0867032, Final residual = 0.00650266, No Iterations 4
time step continuity errors : sum local = 0.769078, global = -0.0579733, cumulative = 0.843287
smoothSolver:  Solving for epsilon, Initial residual = 0.0532318, Final residual = 0.0030113, No Iterations 3
smoothSolver:  Solving for k, Initial residual = 0.068907, Final residual = 0.00474785, No Iterations 4
ExecutionTime = 0.21 s  ClockTime = 1 s

Time = 7


smoothSolver:  Solving for Ux, Initial residual = 0.0479743, Final residual = 0.0038598, No Iterations 5

smoothSolver:  Solving for Uy, Initial residual = 0.0632908, Final residual = 0.00456234, No Iterations 5
GAMG:  Solving for p, Initial residual = 0.0715323, Final residual = 0.0045885, No Iterations 4
time step continuity errors : sum local = 0.540677, global = -0.0673473, cumulative = 0.77594
smoothSolver:  Solving for epsilon, Initial residual = 0.0478442, Final residual = 0.00273446, No Iterations 3
smoothSolver:  Solving for k, Initial residual = 0.0581603, Final residual = 0.00422263, No Iterations 4
ExecutionTime = 0.22 s  ClockTime = 1 s

Time = 8


smoothSolver:  Solving for Ux, Initial residual = 0.0441941, Final residual = 0.00377893, No Iterations 5
smoothSolver:  Solving for Uy, Initial residual = 0.0584274, Final residual = 0.00434069, No Iterations 5

GAMG:  Solving for p, Initial residual = 0.0622691, Final residual = 0.00510351, No Iterations 3
time step continuity errors : sum local = 0.605536, global = 0.0149036, cumulative = 0.790843

smoothSolver:  Solving for epsilon, Initial residual = 0.0408377, Final residual = 0.00275532, No Iterations 3
smoothSolver:  Solving for k, Initial residual = 0.0515683, Final residual = 0.00388887, No Iterations 4
ExecutionTime = 0.24 s  ClockTime = 1 s

Time = 9


smoothSolver:  Solving for Ux, Initial residual = 0.0408709, Final residual = 0.00364297, No Iterations 5

smoothSolver:  Solving for Uy, Initial residual = 0.0551718, Final residual = 0.00421331, No Iterations 5
GAMG:  Solving for p, Initial residual = 0.0568794, Final residual = 0.0047445, No Iterations 3
time step continuity errors : sum local = 0.568955, global = 0.00270241, cumulative = 0.793546
smoothSolver:  Solving for epsilon, Initial residual = 0.0421798, Final residual = 0.0028828, No Iterations 3

smoothSolver:  Solving for k, Initial residual = 0.0481629, Final residual = 0.0037254, No Iterations 4
ExecutionTime = 0.26 s  ClockTime = 1 s

Time = 10


smoothSolver:  Solving for Ux, Initial residual = 0.0385466, Final residual = 0.00351513, No Iterations 5
smoothSolver:  Solving for Uy, Initial residual = 0.0512163, Final residual = 0.0040312, No Iterations 5
GAMG:  Solving for p, Initial residual = 0.0511174, Final residual = 0.00393571, No Iterations 3
time step continuity errors : sum local = 0.483561, global = 0.0136147, cumulative = 0.80716
smoothSolver:  Solving for epsilon, Initial residual = 0.0406448, Final residual = 0.00294772, No Iterations 3
smoothSolver:  Solving for k, Initial residual = 0.0451185, Final residual = 0.00352041, No Iterations 4
ExecutionTime = 0.27 s  ClockTime = 1 s

Time = 11


smoothSolver:  Solving for Ux, Initial residual = 0.0364146, Final residual = 0.00337306, No Iterations 5
smoothSolver:  Solving for Uy, Initial residual = 0.0483305, Final residual = 0.00390661, No Iterations 5

GAMG:  Solving for p, Initial residual = 0.0496514, Final residual = 0.00343158, No Iterations 3
time step continuity errors : sum local = 0.44653, global = 0.0102888, cumulative = 0.817449

smoothSolver:  Solving for epsilon, Initial residual = 0.0396254, Final residual = 0.00300314, No Iterations 3

smoothSolver:  Solving for k, Initial residual = 0.0426102, Final residual = 0.00333603, No Iterations 4
ExecutionTime = 0.29 s  ClockTime = 1 s

Time = 12


smoothSolver:  Solving for Ux, Initial residual = 0.0341638, Final residual = 0.00321402, No Iterations 5

smoothSolver:  Solving for Uy, Initial residual = 0.0465855, Final residual = 0.0038157, No Iterations 5
GAMG:  Solving for p, Initial residual = 0.0479284, Final residual = 0.00340423, No Iterations 3
time step continuity errors : sum local = 0.399795, global = 0.00652487, cumulative = 0.823974
smoothSolver:  Solving for epsilon, Initial residual = 0.0372579, Final residual = 0.00294185, No Iterations 3
smoothSolver:  Solving for k, Initial residual = 0.0408053, Final residual = 0.00321773, No Iterations 4
ExecutionTime = 0.3 s  ClockTime = 1 s

Time = 13

smoothSolver:  Solving for Ux, Initial residual = 0.0322631, Final residual = 0.00304331, No Iterations 5
smoothSolver:  Solving for Uy, Initial residual = 0.0448919, Final residual = 0.00371972, No Iterations 5

GAMG:  Solving for p, Initial residual = 0.0493949, Final residual = 0.00320706, No Iterations 3
time step continuity errors : sum local = 0.383463, global = 0.00577622, cumulative = 0.82975
smoothSolver:  Solving for epsilon, Initial residual = 0.0358384, Final residual = 0.00292063, No Iterations 3
smoothSolver:  Solving for k, Initial residual = 0.0387717, Final residual = 0.00304643, No Iterations 4
ExecutionTime = 0.32 s  ClockTime = 1 s

Time = 14


smoothSolver:  Solving for Ux, Initial residual = 0.030687, Final residual = 0.00288193, No Iterations 5
smoothSolver:  Solving for Uy, Initial residual = 0.0435789, Final residual = 0.00363664, No Iterations 5

GAMG:  Solving for p, Initial residual = 0.0504268, Final residual = 0.00308454, No Iterations 3
time step continuity errors : sum local = 0.37501, global = 0.00323363, cumulative = 0.832984

smoothSolver:  Solving for epsilon, Initial residual = 0.0346848, Final residual = 0.00288311, No Iterations 3
smoothSolver:  Solving for k, Initial residual = 0.0368131, Final residual = 0.00288394, No Iterations 4
ExecutionTime = 0.33 s  ClockTime = 1 s

Time = 15


smoothSolver:  Solving for Ux, Initial residual = 0.028998, Final residual = 0.00272814, No Iterations 5
smoothSolver:  Solving for Uy, Initial residual = 0.04279, Final residual = 0.00355895, No Iterations 5
GAMG:  Solving for p, Initial residual = 0.0482378, Final residual = 0.00318353, No Iterations 3
time step continuity errors : sum local = 0.357247, global = 0.000275628, cumulative = 0.83326
smoothSolver:  Solving for epsilon, Initial residual = 0.0327387, Final residual = 0.00277821, No Iterations 3

smoothSolver:  Solving for k, Initial residual = 0.0349612, Final residual = 0.00273778, No Iterations 4
ExecutionTime = 0.35 s  ClockTime = 1 s

Time = 16


smoothSolver:  Solving for Ux, Initial residual = 0.0272033, Final residual = 0.00258229, No Iterations 5
smoothSolver:  Solving for Uy, Initial residual = 0.0415042, Final residual = 0.00348834, No Iterations 5

GAMG:  Solving for p, Initial residual = 0.0458207, Final residual = 0.00319177, No Iterations 3
time step continuity errors : sum local = 0.345735, global = -0.000350978, cumulative = 0.832909
smoothSolver:  Solving for epsilon, Initial residual = 0.0299029, Final residual = 0.00267962, No Iterations 3

smoothSolver:  Solving for k, Initial residual = 0.0334209, Final residual = 0.00261509, No Iterations 4
ExecutionTime = 0.36 s  ClockTime = 1 s

Time = 17


smoothSolver:  Solving for Ux, Initial residual = 0.0255472, Final residual = 0.00244651, No Iterations 5
smoothSolver:  Solving for Uy, Initial residual = 0.0400476, Final residual = 0.00342807, No Iterations 5

GAMG:  Solving for p, Initial residual = 0.043129, Final residual = 0.0032737, No Iterations 3
time step continuity errors : sum local = 0.345206, global = -0.00241461, cumulative = 0.830494

smoothSolver:  Solving for epsilon, Initial residual = 0.0277871, Final residual = 0.0025317, No Iterations 3
smoothSolver:  Solving for k, Initial residual = 0.0318155, Final residual = 0.00248196, No Iterations 4
ExecutionTime = 0.38 s  ClockTime = 1 s

Time = 18

smoothSolver:  Solving for Ux, Initial residual = 0.0241139, Final residual = 0.00231704, No Iterations 5
smoothSolver:  Solving for Uy, Initial residual = 0.038602, Final residual = 0.00336666, No Iterations 5
GAMG:  Solving for p, Initial residual = 0.0409011, Final residual = 0.00341473, No Iterations 3
time step continuity errors : sum local = 0.344458, global = -0.00461727, cumulative = 0.825877
smoothSolver:  Solving for epsilon, Initial residual = 0.0258516, Final residual = 0.00239125, No Iterations 3
smoothSolver:  Solving for k, Initial residual = 0.0300964, Final residual = 0.00233641, No Iterations 4
ExecutionTime = 0.39 s  ClockTime = 1 s

Time = 19


smoothSolver:  Solving for Ux, Initial residual = 0.0228265, Final residual = 0.00219297, No Iterations 5
smoothSolver:  Solving for Uy, Initial residual = 0.0370724, Final residual = 0.00330216, No Iterations 5

GAMG:  Solving for p, Initial residual = 0.0394323, Final residual = 0.00341666, No Iterations 3
time step continuity errors : sum local = 0.338777, global = -0.00548394, cumulative = 0.820393

smoothSolver:  Solving for epsilon, Initial residual = 0.0243679, Final residual = 0.0022624, No Iterations 3
smoothSolver:  Solving for k, Initial residual = 0.0286813, Final residual = 0.0022249, No Iterations 4
ExecutionTime = 0.4 s  ClockTime = 1 s

Time = 20


smoothSolver:  Solving for Ux, Initial residual = 0.0216061, Final residual = 0.00207259, No Iterations 5
smoothSolver:  Solving for Uy, Initial residual = 0.0358327, Final residual = 0.00324083, No Iterations 5

GAMG:  Solving for p, Initial residual = 0.0375889, Final residual = 0.00345718, No Iterations 3
time step continuity errors : sum local = 0.3291, global = -0.00644747, cumulative = 0.813945
smoothSolver:  Solving for epsilon, Initial residual = 0.02284, Final residual = 0.00211158, No Iterations 3
smoothSolver:  Solving for k, Initial residual = 0.0271237, Final residual = 0.00209556, No Iterations 4
ExecutionTime = 0.41 s  ClockTime = 1 s

Time = 21

smoothSolver:  Solving for Ux, Initial residual = 0.0203924, Final residual = 0.00195672, No Iterations 5
smoothSolver:  Solving for Uy, Initial residual = 0.0348116, Final residual = 0.00318567, No Iterations 5

GAMG:  Solving for p, Initial residual = 0.0361442, Final residual = 0.00341289, No Iterations 3
time step continuity errors : sum local = 0.315417, global = -0.00795302, cumulative = 0.805992

smoothSolver:  Solving for epsilon, Initial residual = 0.0217929, Final residual = 0.00201043, No Iterations 3

smoothSolver:  Solving for k, Initial residual = 0.0260339, Final residual = 0.0020052, No Iterations 4
ExecutionTime = 0.43 s  ClockTime = 1 s

Time = 22


smoothSolver:  Solving for Ux, Initial residual = 0.0192145, Final residual = 0.00184694, No Iterations 5
smoothSolver:  Solving for Uy, Initial residual = 0.0338145, Final residual = 0.00312912, No Iterations 5

GAMG:  Solving for p, Initial residual = 0.0346666, Final residual = 0.0033282, No Iterations 3
time step continuity errors : sum local = 0.299372, global = -0.00863525, cumulative = 0.797357
smoothSolver:  Solving for epsilon, Initial residual = 0.0205558, Final residual = 0.00188065, No Iterations 3
smoothSolver:  Solving for k, Initial residual = 0.025091, Final residual = 0.00192518, No Iterations 4
ExecutionTime = 0.44 s  ClockTime = 1 s

Time = 23

smoothSolver:  Solving for Ux, Initial residual = 0.0181107, Final residual = 0.00174189, No Iterations 5
smoothSolver:  Solving for Uy, Initial residual = 0.0328179, Final residual = 0.00307115, No Iterations 5
GAMG:  Solving for p, Initial residual = 0.0336537, Final residual = 0.00328742, No Iterations 3
time step continuity errors : sum local = 0.287812, global = -0.0103916, cumulative = 0.786965
smoothSolver:  Solving for epsilon, Initial residual = 0.0194852, Final residual = 0.00178123, No Iterations 3

smoothSolver:  Solving for k, Initial residual = 0.0239509, Final residual = 0.00183129, No Iterations 4
ExecutionTime = 0.46 s  ClockTime = 1 s

Time = 24


smoothSolver:  Solving for Ux, Initial residual = 0.0170858, Final residual = 0.00164247, No Iterations 5
smoothSolver:  Solving for Uy, Initial residual = 0.0316562, Final residual = 0.00301121, No Iterations 5

GAMG:  Solving for p, Initial residual = 0.0314124, Final residual = 0.00223958, No Iterations 4
time step continuity errors : sum local = 0.188661, global = 0.0278192, cumulative = 0.814785

smoothSolver:  Solving for epsilon, Initial residual = 0.018547, Final residual = 0.00167389, No Iterations 3
smoothSolver:  Solving for k, Initial residual = 0.0230769, Final residual = 0.00175766, No Iterations 4
ExecutionTime = 0.47 s  ClockTime = 1 s

Time = 25

smoothSolver:  Solving for Ux, Initial residual = 0.0160997, Final residual = 0.00154201, No Iterations 5
smoothSolver:  Solving for Uy, Initial residual = 0.0308181, Final residual = 0.00294772, No Iterations 5

GAMG:  Solving for p, Initial residual = 0.031401, Final residual = 0.00279307, No Iterations 3
time step continuity errors : sum local = 0.229896, global = -0.0115716, cumulative = 0.803213
smoothSolver:  Solving for epsilon, Initial residual = 0.0176642, Final residual = 0.00157039, No Iterations 3
smoothSolver:  Solving for k, Initial residual = 0.0222644, Final residual = 0.00169501, No Iterations 4
ExecutionTime = 0.49 s  ClockTime = 1 s

Time = 26

smoothSolver:  Solving for Ux, Initial residual = 0.0152132, Final residual = 0.00146055, No Iterations 5

smoothSolver:  Solving for Uy, Initial residual = 0.0298816, Final residual = 0.00288063, No Iterations 5

GAMG:  Solving for p, Initial residual = 0.0311161, Final residual = 0.00207435, No Iterations 4
time step continuity errors : sum local = 0.168232, global = 0.0259812, cumulative = 0.829194

smoothSolver:  Solving for epsilon, Initial residual = 0.0168136, Final residual = 0.00148904, No Iterations 3
smoothSolver:  Solving for k, Initial residual = 0.0214731, Final residual = 0.00162018, No Iterations 4
ExecutionTime = 0.5 s  ClockTime = 1 s

Time = 27


smoothSolver:  Solving for Ux, Initial residual = 0.0143018, Final residual = 0.00136816, No Iterations 5
smoothSolver:  Solving for Uy, Initial residual = 0.0290481, Final residual = 0.00280463, No Iterations 5

GAMG:  Solving for p, Initial residual = 0.029408, Final residual = 0.00206356, No Iterations 4
time step continuity errors : sum local = 0.160983, global = 0.0261686, cumulative = 0.855363

smoothSolver:  Solving for epsilon, Initial residual = 0.0160785, Final residual = 0.00141709, No Iterations 3
smoothSolver:  Solving for k, Initial residual = 0.0207939, Final residual = 0.00156414, No Iterations 4
ExecutionTime = 0.52 s  ClockTime = 1 s

Time = 28

smoothSolver:  Solving for Ux, Initial residual = 0.0134332, Final residual = 0.00128899, No Iterations 5
smoothSolver:  Solving for Uy, Initial residual = 0.0280504, Final residual = 0.00273823, No Iterations 5
GAMG:  Solving for p, Initial residual = 0.0282843, Final residual = 0.00224864, No Iterations 4
time step continuity errors : sum local = 0.171295, global = 0.0281711, cumulative = 0.883534
smoothSolver:  Solving for epsilon, Initial residual = 0.015344, Final residual = 0.00135023, No Iterations 3

smoothSolver:  Solving for k, Initial residual = 0.0200707, Final residual = 0.00149968, No Iterations 4
ExecutionTime = 0.53 s  ClockTime = 1 s

Time = 29


smoothSolver:  Solving for Ux, Initial residual = 0.0126491, Final residual = 0.00121197, No Iterations 5
smoothSolver:  Solving for Uy, Initial residual = 0.027328, Final residual = 0.0026621, No Iterations 5

GAMG:  Solving for p, Initial residual = 0.0304772, Final residual = 0.00234165, No Iterations 4
time step continuity errors : sum local = 0.175348, global = 0.0294145, cumulative = 0.912948
smoothSolver:  Solving for epsilon, Initial residual = 0.0147045, Final residual = 0.00129154, No Iterations 3

smoothSolver:  Solving for k, Initial residual = 0.0194173, Final residual = 0.00144685, No Iterations 4
ExecutionTime = 0.55 s  ClockTime = 1 s

Time = 30


smoothSolver:  Solving for Ux, Initial residual = 0.0118572, Final residual = 0.00113801, No Iterations 5
smoothSolver:  Solving for Uy, Initial residual = 0.0265035, Final residual = 0.002592, No Iterations 5

GAMG:  Solving for p, Initial residual = 0.0292627, Final residual = 0.00234019, No Iterations 4
time step continuity errors : sum local = 0.170811, global = 0.0292432, cumulative = 0.942192

smoothSolver:  Solving for epsilon, Initial residual = 0.0140096, Final residual = 0.00123393, No Iterations 3
smoothSolver:  Solving for k, Initial residual = 0.0187212, Final residual = 0.00139057, No Iterations 4
ExecutionTime = 0.56 s  ClockTime = 1 s

Time = 31

smoothSolver:  Solving for Ux, Initial residual = 0.0111125, Final residual = 0.00106898, No Iterations 5

smoothSolver:  Solving for Uy, Initial residual = 0.0255834, Final residual = 0.00252396, No Iterations 5

GAMG:  Solving for p, Initial residual = 0.0295348, Final residual = 0.00237295, No Iterations 4
time step continuity errors : sum local = 0.168487, global = 0.0303958, cumulative = 0.972588

smoothSolver:  Solving for epsilon, Initial residual = 0.0133849, Final residual = 0.00117587, No Iterations 3
smoothSolver:  Solving for k, Initial residual = 0.0180458, Final residual = 0.00133992, No Iterations 4
ExecutionTime = 0.58 s  ClockTime = 1 s

Time = 32


smoothSolver:  Solving for Ux, Initial residual = 0.0104324, Final residual = 0.00100458, No Iterations 5

smoothSolver:  Solving for Uy, Initial residual = 0.0248724, Final residual = 0.00245655, No Iterations 5

GAMG:  Solving for p, Initial residual = 0.0303713, Final residual = 0.00232355, No Iterations 4

time step continuity errors : sum local = 0.161234, global = 0.0294747, cumulative = 1.00206

smoothSolver:  Solving for epsilon, Initial residual = 0.0128177, Final residual = 0.00113052, No Iterations 3

smoothSolver:  Solving for k, Initial residual = 0.0174674, Final residual = 0.00128888, No Iterations 4

ExecutionTime = 0.59 s  ClockTime = 1 s

Time = 33


smoothSolver:  Solving for Ux, Initial residual = 0.00976996, Final residual = 0.000943074, No Iterations 5
smoothSolver:  Solving for Uy, Initial residual = 0.0241046, Final residual = 0.00239157, No Iterations 5

GAMG:  Solving for p, Initial residual = 0.0291612, Final residual = 0.00225094, No Iterations 4
time step continuity errors : sum local = 0.152687, global = 0.0281373, cumulative = 1.0302

smoothSolver:  Solving for epsilon, Initial residual = 0.0123248, Final residual = 0.0010884, No Iterations 3

smoothSolver:  Solving for k, Initial residual = 0.0169214, Final residual = 0.00125095, No Iterations 4
ExecutionTime = 0.61 s  ClockTime = 1 s

Time = 34


smoothSolver:  Solving for Ux, Initial residual = 0.00915236, Final residual = 0.000886457, No Iterations 5
smoothSolver:  Solving for Uy, Initial residual = 0.0234514, Final residual = 0.00233364, No Iterations 5

GAMG:  Solving for p, Initial residual = 0.0282693, Final residual = 0.00203609, No Iterations 4

time step continuity errors : sum local = 0.134738, global = 0.0229301, cumulative = 1.05313
smoothSolver:  Solving for epsilon, Initial residual = 0.0118539, Final residual = 0.00104507, No Iterations 3
smoothSolver:  Solving for k, Initial residual = 0.0164381, Final residual = 0.00120961, No Iterations 4
ExecutionTime = 0.63 s  ClockTime = 1 s

Time = 35

smoothSolver:  Solving for Ux, Initial residual = 0.00860316, Final residual = 0.000835678, No Iterations 5
smoothSolver:  Solving for Uy, Initial residual = 0.0227456, Final residual = 0.00147024, No Iterations 6
GAMG:  Solving for p, Initial residual = 0.0279167, Final residual = 0.0021278, No Iterations 4
time step continuity errors : sum local = 0.138636, global = 0.0250819, cumulative = 1.07821

smoothSolver:  Solving for epsilon, Initial residual = 0.0113373, Final residual = 0.00100063, No Iterations 3

smoothSolver:  Solving for k, Initial residual = 0.0158799, Final residual = 0.00116699, No Iterations 4
ExecutionTime = 0.64 s  ClockTime = 1 s

Time = 36


smoothSolver:  Solving for Ux, Initial residual = 0.00810103, Final residual = 0.000791127, No Iterations 5

smoothSolver:  Solving for Uy, Initial residual = 0.0217902, Final residual = 0.00141979, No Iterations 6

GAMG:  Solving for p, Initial residual = 0.0262842, Final residual = 0.00192916, No Iterations 4
time step continuity errors : sum local = 0.122586, global = 0.0200226, cumulative = 1.09823
smoothSolver:  Solving for epsilon, Initial residual = 0.0109204, Final residual = 0.000974051, No Iterations 3
smoothSolver:  Solving for k, Initial residual = 0.0154363, Final residual = 0.00113862, No Iterations 4
ExecutionTime = 0.66 s  ClockTime = 1 s

Time = 37


smoothSolver:  Solving for Ux, Initial residual = 0.00764055, Final residual = 0.000748369, No Iterations 5
smoothSolver:  Solving for Uy, Initial residual = 0.0212077, Final residual = 0.00138926, No Iterations 6

GAMG:  Solving for p, Initial residual = 0.027089, Final residual = 0.00201531, No Iterations 4
time step continuity errors : sum local = 0.124922, global = 0.0218365, cumulative = 1.12007

smoothSolver:  Solving for epsilon, Initial residual = 0.0106004, Final residual = 0.000939731, No Iterations 3

smoothSolver:  Solving for k, Initial residual = 0.0148974, Final residual = 0.00109151, No Iterations 4
ExecutionTime = 0.67 s  ClockTime = 1 s

Time = 38


smoothSolver:  Solving for Ux, Initial residual = 0.00720013, Final residual = 0.000706812, No Iterations 5

smoothSolver:  Solving for Uy, Initial residual = 0.0206304, Final residual = 0.00136489, No Iterations 6

GAMG:  Solving for p, Initial residual = 0.0282276, Final residual = 0.00258123, No Iterations 3

time step continuity errors : sum local = 0.158492, global = -0.0264889, cumulative = 1.09358
smoothSolver:  Solving for epsilon, Initial residual = 0.0102168, Final residual = 0.000905417, No Iterations 3
smoothSolver:  Solving for k, Initial residual = 0.014383, Final residual = 0.00105541, No Iterations 4
ExecutionTime = 0.69 s  ClockTime = 1 s

Time = 39

smoothSolver:  Solving for Ux, Initial residual = 0.00682334, Final residual = 0.00067312, No Iterations 5
smoothSolver:  Solving for Uy, Initial residual = 0.0202374, Final residual = 0.00134227, No Iterations 6

GAMG:  Solving for p, Initial residual = 0.0268228, Final residual = 0.00250326, No Iterations 3
time step continuity errors : sum local = 0.148811, global = 0.0134157, cumulative = 1.107
smoothSolver:  Solving for epsilon, Initial residual = 0.00979951, Final residual = 0.000880967, No Iterations 3

smoothSolver:  Solving for k, Initial residual = 0.0139138, Final residual = 0.00101806, No Iterations 4
ExecutionTime = 0.7 s  ClockTime = 1 s

Time = 40


smoothSolver:  Solving for Ux, Initial residual = 0.00642981, Final residual = 0.000637017, No Iterations 5
smoothSolver:  Solving for Uy, Initial residual = 0.01984, Final residual = 0.00132905, No Iterations 6

GAMG:  Solving for p, Initial residual = 0.0253503, Final residual = 0.00242002, No Iterations 3
time step continuity errors : sum local = 0.140973, global = -0.012639, cumulative = 1.09436
smoothSolver:  Solving for epsilon, Initial residual = 0.00944739, Final residual = 0.000843153, No Iterations 3

smoothSolver:  Solving for k, Initial residual = 0.0134827, Final residual = 0.000981951, No Iterations 4
ExecutionTime = 0.72 s  ClockTime = 1 s

Time = 41


smoothSolver:  Solving for Ux, Initial residual = 0.00611172, Final residual = 0.000607239, No Iterations 5
smoothSolver:  Solving for Uy, Initial residual = 0.0195778, Final residual = 0.00131887, No Iterations 6
GAMG:  Solving for p, Initial residual = 0.0272247, Final residual = 0.00200291, No Iterations 3
time step continuity errors : sum local = 0.115662, global = 0.0113192, cumulative = 1.10568
smoothSolver:  Solving for epsilon, Initial residual = 0.0090978, Final residual = 0.000807792, No Iterations 3
smoothSolver:  Solving for k, Initial residual = 0.0129871, Final residual = 0.000948164, No Iterations 4
ExecutionTime = 0.73 s  ClockTime = 1 s

Time = 42


smoothSolver:  Solving for Ux, Initial residual = 0.00582479, Final residual = 0.000582092, No Iterations 5

smoothSolver:  Solving for Uy, Initial residual = 0.0192569, Final residual = 0.00130606, No Iterations 6

GAMG:  Solving for p, Initial residual = 0.024983, Final residual = 0.00216445, No Iterations 3
time step continuity errors : sum local = 0.122435, global = -0.000987316, cumulative = 1.10469
smoothSolver:  Solving for epsilon, Initial residual = 0.00871174, Final residual = 0.000774588, No Iterations 3

smoothSolver:  Solving for k, Initial residual = 0.0125413, Final residual = 0.000910141, No Iterations 4
ExecutionTime = 0.76 s  ClockTime = 1 s

Time = 43

smoothSolver:  Solving for Ux, Initial residual = 0.00555443, Final residual = 0.000356969, No Iterations 6
smoothSolver:  Solving for Uy, Initial residual = 0.0189928, Final residual = 0.00129759, No Iterations 6

GAMG:  Solving for p, Initial residual = 0.0256045, Final residual = 0.00216167, No Iterations 3
time step continuity errors : sum local = 0.120047, global = 0.00823466, cumulative = 1.11292

smoothSolver:  Solving for epsilon, Initial residual = 0.00847633, Final residual = 0.000746141, No Iterations 3
smoothSolver:  Solving for k, Initial residual = 0.0120968, Final residual = 0.000876536, No Iterations 4
ExecutionTime = 0.77 s  ClockTime = 1 s

Time = 44

smoothSolver:  Solving for Ux, Initial residual = 0.00530477, Final residual = 0.000341088, No Iterations 6
smoothSolver:  Solving for Uy, Initial residual = 0.0189205, Final residual = 0.00130429, No Iterations 6
GAMG:  Solving for p, Initial residual = 0.0269903, Final residual = 0.00197175, No Iterations 3
time step continuity errors : sum local = 0.109265, global = 0.00546929, cumulative = 1.11839

smoothSolver:  Solving for epsilon, Initial residual = 0.00815984, Final residual = 0.000714114, No Iterations 3
smoothSolver:  Solving for k, Initial residual = 0.0116959, Final residual = 0.000845911, No Iterations 4
ExecutionTime = 0.79 s  ClockTime = 1 s

Time = 45


smoothSolver:  Solving for Ux, Initial residual = 0.00508758, Final residual = 0.000329103, No Iterations 6

smoothSolver:  Solving for Uy, Initial residual = 0.0189337, Final residual = 0.00130504, No Iterations 6

GAMG:  Solving for p, Initial residual = 0.0243085, Final residual = 0.00207798, No Iterations 3
time step continuity errors : sum local = 0.112198, global = 0.0104998, cumulative = 1.12889
smoothSolver:  Solving for epsilon, Initial residual = 0.00781321, Final residual = 0.000688275, No Iterations 3

smoothSolver:  Solving for k, Initial residual = 0.0112925, Final residual = 0.000814944, No Iterations 4
ExecutionTime = 0.8 s  ClockTime = 1 s

Time = 46

smoothSolver:  Solving for Ux, Initial residual = 0.00488925, Final residual = 0.000317905, No Iterations 6
smoothSolver:  Solving for Uy, Initial residual = 0.0187732, Final residual = 0.0013072, No Iterations 6
GAMG:  Solving for p, Initial residual = 0.0239009, Final residual = 0.00187372, No Iterations 3
time step continuity errors : sum local = 0.099823, global = 0.0143698, cumulative = 1.14326
smoothSolver:  Solving for epsilon, Initial residual = 0.00760999, Final residual = 0.000655846, No Iterations 3
smoothSolver:  Solving for k, Initial residual = 0.0109042, Final residual = 0.000785303, No Iterations 4
ExecutionTime = 0.82 s  ClockTime = 1 s

Time = 47


smoothSolver:  Solving for Ux, Initial residual = 0.00473646, Final residual = 0.000308238, No Iterations 6
smoothSolver:  Solving for Uy, Initial residual = 0.0186832, Final residual = 0.00130885, No Iterations 6

GAMG:  Solving for p, Initial residual = 0.0258468, Final residual = 0.00184962, No Iterations 3
time step continuity errors : sum local = 0.0987273, global = 0.0167833, cumulative = 1.16005

smoothSolver:  Solving for epsilon, Initial residual = 0.00741247, Final residual = 0.000626406, No Iterations 3
smoothSolver:  Solving for k, Initial residual = 0.0105247, Final residual = 0.000762864, No Iterations 4
ExecutionTime = 0.83 s  ClockTime = 1 s

Time = 48

smoothSolver:  Solving for Ux, Initial residual = 0.00461566, Final residual = 0.000301525, No Iterations 6
smoothSolver:  Solving for Uy, Initial residual = 0.0187015, Final residual = 0.00130667, No Iterations 6

GAMG:  Solving for p, Initial residual = 0.0227717, Final residual = 0.00191632, No Iterations 3
time step continuity errors : sum local = 0.0997303, global = 0.0171668, cumulative = 1.17721

smoothSolver:  Solving for epsilon, Initial residual = 0.00711813, Final residual = 0.000602421, No Iterations 3
smoothSolver:  Solving for k, Initial residual = 0.0101106, Final residual = 0.000724022, No Iterations 4
ExecutionTime = 0.84 s  ClockTime = 1 s

Time = 49

smoothSolver:  Solving for Ux, Initial residual = 0.00448819, Final residual = 0.000294632, No Iterations 6

smoothSolver:  Solving for Uy, Initial residual = 0.0186113, Final residual = 0.00131095, No Iterations 6

GAMG:  Solving for p, Initial residual = 0.0226594, Final residual = 0.00182035, No Iterations 3
time step continuity errors : sum local = 0.0939278, global = 0.0163659, cumulative = 1.19358
smoothSolver:  Solving for epsilon, Initial residual = 0.00692917, Final residual = 0.000577244, No Iterations 3

smoothSolver:  Solving for k, Initial residual = 0.00978103, Final residual = 0.000696025, No Iterations 4
ExecutionTime = 0.86 s  ClockTime = 1 s

Time = 50


smoothSolver:  Solving for Ux, Initial residual = 0.00439609, Final residual = 0.000289025, No Iterations 6
smoothSolver:  Solving for Uy, Initial residual = 0.0185701, Final residual = 0.00131556, No Iterations 6

GAMG:  Solving for p, Initial residual = 0.0242938, Final residual = 0.00170319, No Iterations 3
time step continuity errors : sum local = 0.0882768, global = 0.0153615, cumulative = 1.20894
smoothSolver:  Solving for epsilon, Initial residual = 0.0067158, Final residual = 0.000551367, No Iterations 3

smoothSolver:  Solving for k, Initial residual = 0.00948984, Final residual = 0.000679322, No Iterations 4
ExecutionTime = 0.87 s  ClockTime = 1 s

Time = 51


smoothSolver:  Solving for Ux, Initial residual = 0.00433458, Final residual = 0.000285514, No Iterations 6

smoothSolver:  Solving for Uy, Initial residual = 0.0186688, Final residual = 0.00131769, No Iterations 6
GAMG:  Solving for p, Initial residual = 0.0219426, Final residual = 0.00170091, No Iterations 3
time step continuity errors : sum local = 0.0862999, global = 0.015119, cumulative = 1.22406

smoothSolver:  Solving for epsilon, Initial residual = 0.00649357, Final residual = 0.000530072, No Iterations 3
smoothSolver:  Solving for k, Initial residual = 0.00916634, Final residual = 0.000656473, No Iterations 4
ExecutionTime = 0.89 s  ClockTime = 1 s

Time = 52

smoothSolver:  Solving for Ux, Initial residual = 0.00425914, Final residual = 0.00028156, No Iterations 6
smoothSolver:  Solving for Uy, Initial residual = 0.0186428, Final residual = 0.00132346, No Iterations 6
GAMG:  Solving for p, Initial residual = 0.021853, Final residual = 0.00161326, No Iterations 3

time step continuity errors : sum local = 0.0814855, global = 0.0136649, cumulative = 1.23773
smoothSolver:  Solving for epsilon, Initial residual = 0.00632567, Final residual = 0.00050768, No Iterations 3
smoothSolver:  Solving for k, Initial residual = 0.00886429, Final residual = 0.000635624, No Iterations 4
ExecutionTime = 0.9 s  ClockTime = 1 s

Time = 53


smoothSolver:  Solving for Ux, Initial residual = 0.00420449, Final residual = 0.000278048, No Iterations 6
smoothSolver:  Solving for Uy, Initial residual = 0.0186269, Final residual = 0.00132934, No Iterations 6

GAMG:  Solving for p, Initial residual = 0.0224717, Final residual = 0.00159289, No Iterations 3
time step continuity errors : sum local = 0.0808961, global = 0.0150967, cumulative = 1.25282
smoothSolver:  Solving for epsilon, Initial residual = 0.00621427, Final residual = 0.000493717, No Iterations 3
smoothSolver:  Solving for k, Initial residual = 0.00859188, Final residual = 0.000612437, No Iterations 4
ExecutionTime = 0.92 s  ClockTime = 1 s

Time = 54

smoothSolver:  Solving for Ux, Initial residual = 0.00417154, Final residual = 0.000275713, No Iterations 6
smoothSolver:  Solving for Uy, Initial residual = 0.0187129, Final residual = 0.00133158, No Iterations 6
GAMG:  Solving for p, Initial residual = 0.0213643, Final residual = 0.00144827, No Iterations 3
time step continuity errors : sum local = 0.0722352, global = 0.0133294, cumulative = 1.26615

smoothSolver:  Solving for epsilon, Initial residual = 0.00602779, Final residual = 0.000474599, No Iterations 3
smoothSolver:  Solving for k, Initial residual = 0.00832732, Final residual = 0.000593457, No Iterations 4

ExecutionTime = 0.93 s  ClockTime = 1 s

Time = 55


smoothSolver:  Solving for Ux, Initial residual = 0.00411727, Final residual = 0.000272747, No Iterations 6

smoothSolver:  Solving for Uy, Initial residual = 0.0186947, Final residual = 0.00133739, No Iterations 6

GAMG:  Solving for p, Initial residual = 0.0209819, Final residual = 0.00167963, No Iterations 3
time step continuity errors : sum local = 0.0836749, global = 0.0174049, cumulative = 1.28356

smoothSolver:  Solving for epsilon, Initial residual = 0.00585199, Final residual = 0.000455857, No Iterations 3
smoothSolver:  Solving for k, Initial residual = 0.00810907, Final residual = 0.000579303, No Iterations 4
ExecutionTime = 0.95 s  ClockTime = 1 s

Time = 56


smoothSolver:  Solving for Ux, Initial residual = 0.00407559, Final residual = 0.000270389, No Iterations 6
smoothSolver:  Solving for Uy, Initial residual = 0.0186651, Final residual = 0.00134171, No Iterations 6

GAMG:  Solving for p, Initial residual = 0.0205669, Final residual = 0.00169516, No Iterations 3
time step continuity errors : sum local = 0.0841557, global = 0.00773818, cumulative = 1.29129
smoothSolver:  Solving for epsilon, Initial residual = 0.00581689, Final residual = 0.000444803, No Iterations 3
smoothSolver:  Solving for k, Initial residual = 0.0078479, Final residual = 0.000558219, No Iterations 4
ExecutionTime = 0.96 s  ClockTime = 1 s

Time = 57


smoothSolver:  Solving for Ux, Initial residual = 0.0040645, Final residual = 0.000267801, No Iterations 6

smoothSolver:  Solving for Uy, Initial residual = 0.0188179, Final residual = 0.00134881, No Iterations 6

GAMG:  Solving for p, Initial residual = 0.0250087, Final residual = 0.00145118, No Iterations 3
time step continuity errors : sum local = 0.0724119, global = 0.0188538, cumulative = 1.31015

smoothSolver:  Solving for epsilon, Initial residual = 0.00568614, Final residual = 0.000428135, No Iterations 3

smoothSolver:  Solving for k, Initial residual = 0.00759096, Final residual = 0.000536971, No Iterations 4
ExecutionTime = 0.98 s  ClockTime = 1 s

Time = 58


smoothSolver:  Solving for Ux, Initial residual = 0.00403619, Final residual = 0.000266765, No Iterations 6
smoothSolver:  Solving for Uy, Initial residual = 0.0188478, Final residual = 0.0013483, No Iterations 6

GAMG:  Solving for p, Initial residual = 0.0219791, Final residual = 0.00174897, No Iterations 3
time step continuity errors : sum local = 0.0857752, global = -0.0113682, cumulative = 1.29878

smoothSolver:  Solving for epsilon, Initial residual = 0.0055131, Final residual = 0.000419713, No Iterations 3
smoothSolver:  Solving for k, Initial residual = 0.00738804, Final residual = 0.000523624, No Iterations 4
ExecutionTime = 0.99 s  ClockTime = 1 s

Time = 59


smoothSolver:  Solving for Ux, Initial residual = 0.00399138, Final residual = 0.000263933, No Iterations 6
smoothSolver:  Solving for Uy, Initial residual = 0.0188155, Final residual = 0.00135548, No Iterations 6

GAMG:  Solving for p, Initial residual = 0.0213238, Final residual = 0.00177436, No Iterations 3
time step continuity errors : sum local = 0.0859553, global = 0.0148632, cumulative = 1.31364
smoothSolver:  Solving for epsilon, Initial residual = 0.00543433, Final residual = 0.000410036, No Iterations 3
smoothSolver:  Solving for k, Initial residual = 0.0071955, Final residual = 0.000510536, No Iterations 4
ExecutionTime = 1.01 s  ClockTime = 1 s

Time = 60

smoothSolver:  Solving for Ux, Initial residual = 0.00396259, Final residual = 0.000262265, No Iterations 6

smoothSolver:  Solving for Uy, Initial residual = 0.0188563, Final residual = 0.00135915, No Iterations 6
GAMG:  Solving for p, Initial residual = 0.021703, Final residual = 0.00183709, No Iterations 3
time step continuity errors : sum local = 0.0882807, global = -0.00401714, cumulative = 1.30963

smoothSolver:  Solving for epsilon, Initial residual = 0.00534391, Final residual = 0.000399613, No Iterations 3
smoothSolver:  Solving for k, Initial residual = 0.00703186, Final residual = 0.000498293, No Iterations 4
ExecutionTime = 1.02 s  ClockTime = 2 s

Time = 61


smoothSolver:  Solving for Ux, Initial residual = 0.00392753, Final residual = 0.00025922, No Iterations 6

smoothSolver:  Solving for Uy, Initial residual = 0.0190674, Final residual = 0.00137249, No Iterations 6

GAMG:  Solving for p, Initial residual = 0.0215235, Final residual = 0.00151109, No Iterations 3
time step continuity errors : sum local = 0.0731236, global = 0.0145871, cumulative = 1.32421

smoothSolver:  Solving for epsilon, Initial residual = 0.00527158, Final residual = 0.000394634, No Iterations 3

smoothSolver:  Solving for k, Initial residual = 0.00684887, Final residual = 0.000489378, No Iterations 4
ExecutionTime = 1.04 s  ClockTime = 2 s

Time = 62

smoothSolver:  Solving for Ux, Initial residual = 0.00390463, Final residual = 0.000258712, No Iterations 6

smoothSolver:  Solving for Uy, Initial residual = 0.0190117, Final residual = 0.00137569, No Iterations 6
GAMG:  Solving for p, Initial residual = 0.0194937, Final residual = 0.00108115, No Iterations 4
time step continuity errors : sum local = 0.0519016, global = -0.00425714, cumulative = 1.31996
smoothSolver:  Solving for epsilon, Initial residual = 0.00513436, Final residual = 0.000386982, No Iterations 3
smoothSolver:  Solving for k, Initial residual = 0.00664212, Final residual = 0.000473024, No Iterations 4
ExecutionTime = 1.05 s  ClockTime = 2 s

Time = 63


smoothSolver:  Solving for Ux, Initial residual = 0.0038692, Final residual = 0.000255726, No Iterations 6

smoothSolver:  Solving for Uy, Initial residual = 0.0190697, Final residual = 0.00138937, No Iterations 6

GAMG:  Solving for p, Initial residual = 0.0198786, Final residual = 0.00148832, No Iterations 3
time step continuity errors : sum local = 0.0703728, global = 0.0130251, cumulative = 1.33298

smoothSolver:  Solving for epsilon, Initial residual = 0.00506712, Final residual = 0.00038092, No Iterations 3
smoothSolver:  Solving for k, Initial residual = 0.00652551, Final residual = 0.000467252, No Iterations 4
ExecutionTime = 1.07 s  ClockTime = 2 s

Time = 64


smoothSolver:  Solving for Ux, Initial residual = 0.00385471, Final residual = 0.000255431, No Iterations 6
smoothSolver:  Solving for Uy, Initial residual = 0.019037, Final residual = 0.00139193, No Iterations 6

GAMG:  Solving for p, Initial residual = 0.020001, Final residual = 0.00175396, No Iterations 3
time step continuity errors : sum local = 0.0831667, global = -0.0127137, cumulative = 1.32027
smoothSolver:  Solving for epsilon, Initial residual = 0.00497982, Final residual = 0.00037673, No Iterations 3
smoothSolver:  Solving for k, Initial residual = 0.0064115, Final residual = 0.000462214, No Iterations 4
ExecutionTime = 1.09 s  ClockTime = 2 s

Time = 65


smoothSolver:  Solving for Ux, Initial residual = 0.00383766, Final residual = 0.000253132, No Iterations 6
smoothSolver:  Solving for Uy, Initial residual = 0.0191597, Final residual = 0.00140174, No Iterations 6
GAMG:  Solving for p, Initial residual = 0.019546, Final residual = 0.00178229, No Iterations 3
time step continuity errors : sum local = 0.0840158, global = 0.0138535, cumulative = 1.33412
smoothSolver:  Solving for epsilon, Initial residual = 0.00492022, Final residual = 0.000375084, No Iterations 3
smoothSolver:  Solving for k, Initial residual = 0.00625326, Final residual = 0.000451368, No Iterations 4
ExecutionTime = 1.1 s  ClockTime = 2 s

Time = 66


smoothSolver:  Solving for Ux, Initial residual = 0.00381629, Final residual = 0.000252266, No Iterations 6

smoothSolver:  Solving for Uy, Initial residual = 0.0192457, Final residual = 0.00141152, No Iterations 6
GAMG:  Solving for p, Initial residual = 0.0200246, Final residual = 0.00188748, No Iterations 3
time step continuity errors : sum local = 0.0884599, global = -0.0120719, cumulative = 1.32205
smoothSolver:  Solving for epsilon, Initial residual = 0.00488178, Final residual = 0.000374186, No Iterations 3

smoothSolver:  Solving for k, Initial residual = 0.00615584, Final residual = 0.000447436, No Iterations 4
ExecutionTime = 1.11 s  ClockTime = 2 s

Time = 67


smoothSolver:  Solving for Ux, Initial residual = 0.00379384, Final residual = 0.000250206, No Iterations 6

smoothSolver:  Solving for Uy, Initial residual = 0.0193972, Final residual = 0.001423, No Iterations 6

GAMG:  Solving for p, Initial residual = 0.0192519, Final residual = 0.00163984, No Iterations 3
time step continuity errors : sum local = 0.0766649, global = 0.013539, cumulative = 1.33559

smoothSolver:  Solving for epsilon, Initial residual = 0.0048067, Final residual = 0.000371387, No Iterations 3
smoothSolver:  Solving for k, Initial residual = 0.0060469, Final residual = 0.000440886, No Iterations 4
ExecutionTime = 1.13 s  ClockTime = 2 s

Time = 68

smoothSolver:  Solving for Ux, Initial residual = 0.00377309, Final residual = 0.00024977, No Iterations 6
smoothSolver:  Solving for Uy, Initial residual = 0.0194486, Final residual = 0.00143431, No Iterations 6

GAMG:  Solving for p, Initial residual = 0.0186879, Final residual = 0.00109261, No Iterations 4
time step continuity errors : sum local = 0.0511133, global = 0.00435238, cumulative = 1.33994

smoothSolver:  Solving for epsilon, Initial residual = 0.00476712, Final residual = 0.000372694, No Iterations 3
smoothSolver:  Solving for k, Initial residual = 0.00597771, Final residual = 0.000437402, No Iterations 4
ExecutionTime = 1.14 s  ClockTime = 2 s

Time = 69


smoothSolver:  Solving for Ux, Initial residual = 0.00375156, Final residual = 0.000247834, No Iterations 6

smoothSolver:  Solving for Uy, Initial residual = 0.0196087, Final residual = 0.00144504, No Iterations 6

GAMG:  Solving for p, Initial residual = 0.0183714, Final residual = 0.00149833, No Iterations 3
time step continuity errors : sum local = 0.0693252, global = 0.0135194, cumulative = 1.35346

smoothSolver:  Solving for epsilon, Initial residual = 0.00471859, Final residual = 0.000372802, No Iterations 3
smoothSolver:  Solving for k, Initial residual = 0.00587097, Final residual = 0.000433232, No Iterations 4
ExecutionTime = 1.17 s  ClockTime = 2 s

Time = 70


smoothSolver:  Solving for Ux, Initial residual = 0.00374636, Final residual = 0.000247835, No Iterations 6

smoothSolver:  Solving for Uy, Initial residual = 0.0197232, Final residual = 0.00145706, No Iterations 6
GAMG:  Solving for p, Initial residual = 0.0178715, Final residual = 0.00156157, No Iterations 3
time step continuity errors : sum local = 0.0724811, global = -0.010889, cumulative = 1.34257
smoothSolver:  Solving for epsilon, Initial residual = 0.00467942, Final residual = 0.000370863, No Iterations 3
smoothSolver:  Solving for k, Initial residual = 0.00579918, Final residual = 0.000431352, No Iterations 4
ExecutionTime = 1.18 s  ClockTime = 2 s

Time = 71

smoothSolver:  Solving for Ux, Initial residual = 0.0037495, Final residual = 0.000247258, No Iterations 6
smoothSolver:  Solving for Uy, Initial residual = 0.0198477, Final residual = 0.00146537, No Iterations 6

GAMG:  Solving for p, Initial residual = 0.0184223, Final residual = 0.00146794, No Iterations 4
time step continuity errors : sum local = 0.0680453, global = -0.015135, cumulative = 1.32744
smoothSolver:  Solving for epsilon, Initial residual = 0.00465426, Final residual = 0.000372882, No Iterations 3
smoothSolver:  Solving for k, Initial residual = 0.00568935, Final residual = 0.000426661, No Iterations 4
ExecutionTime = 1.19 s  ClockTime = 2 s

Time = 72


smoothSolver:  Solving for Ux, Initial residual = 0.00372888, Final residual = 0.00024619, No Iterations 6
smoothSolver:  Solving for Uy, Initial residual = 0.019966, Final residual = 0.00147709, No Iterations 6

GAMG:  Solving for p, Initial residual = 0.0176105, Final residual = 0.00146713, No Iterations 4
time step continuity errors : sum local = 0.0676671, global = -0.015165, cumulative = 1.31227
smoothSolver:  Solving for epsilon, Initial residual = 0.00460736, Final residual = 0.000373069, No Iterations 3

smoothSolver:  Solving for k, Initial residual = 0.00565687, Final residual = 0.000426267, No Iterations 4
ExecutionTime = 1.21 s  ClockTime = 2 s

Time = 73


smoothSolver:  Solving for Ux, Initial residual = 0.00371976, Final residual = 0.000245741, No Iterations 6
smoothSolver:  Solving for Uy, Initial residual = 0.0201292, Final residual = 0.00148874, No Iterations 6

GAMG:  Solving for p, Initial residual = 0.0180784, Final residual = 0.0014982, No Iterations 4
time step continuity errors : sum local = 0.0692366, global = -0.0150205, cumulative = 1.29725
smoothSolver:  Solving for epsilon, Initial residual = 0.0045772, Final residual = 0.000374506, No Iterations 3

smoothSolver:  Solving for k, Initial residual = 0.00561646, Final residual = 0.000426992, No Iterations 4
ExecutionTime = 1.22 s  ClockTime = 2 s

Time = 74


smoothSolver:  Solving for Ux, Initial residual = 0.00370856, Final residual = 0.000245307, No Iterations 6

smoothSolver:  Solving for Uy, Initial residual = 0.0202284, Final residual = 0.00149926, No Iterations 6

GAMG:  Solving for p, Initial residual = 0.0176346, Final residual = 0.00152067, No Iterations 4
time step continuity errors : sum local = 0.0702514, global = -0.0148124, cumulative = 1.28244
smoothSolver:  Solving for epsilon, Initial residual = 0.00454483, Final residual = 0.000376793, No Iterations 3

smoothSolver:  Solving for k, Initial residual = 0.00552403, Final residual = 0.000422979, No Iterations 4
ExecutionTime = 1.24 s  ClockTime = 2 s

Time = 75


smoothSolver:  Solving for Ux, Initial residual = 0.00370739, Final residual = 0.000245091, No Iterations 6

smoothSolver:  Solving for Uy, Initial residual = 0.0204157, Final residual = 0.0015106, No Iterations 6

GAMG:  Solving for p, Initial residual = 0.0181898, Final residual = 0.00153831, No Iterations 4
time step continuity errors : sum local = 0.0707369, global = -0.0144681, cumulative = 1.26797
smoothSolver:  Solving for epsilon, Initial residual = 0.0045232, Final residual = 0.000378352, No Iterations 3
smoothSolver:  Solving for k, Initial residual = 0.00549714, Final residual = 0.000425028, No Iterations 4
ExecutionTime = 1.25 s  ClockTime = 2 s

Time = 76


smoothSolver:  Solving for Ux, Initial residual = 0.0036989, Final residual = 0.000244892, No Iterations 6
smoothSolver:  Solving for Uy, Initial residual = 0.020521, Final residual = 0.00152195, No Iterations 6
GAMG:  Solving for p, Initial residual = 0.0176367, Final residual = 0.00153986, No Iterations 4
time step continuity errors : sum local = 0.0709843, global = -0.0141722, cumulative = 1.2538

smoothSolver:  Solving for epsilon, Initial residual = 0.00448186, Final residual = 0.00037906, No Iterations 3
smoothSolver:  Solving for k, Initial residual = 0.00543266, Final residual = 0.000422678, No Iterations 4
ExecutionTime = 1.27 s  ClockTime = 2 s

Time = 77


smoothSolver:  Solving for Ux, Initial residual = 0.0037, Final residual = 0.000244826, No Iterations 6
smoothSolver:  Solving for Uy, Initial residual = 0.0206963, Final residual = 0.00153392, No Iterations 6

GAMG:  Solving for p, Initial residual = 0.0182766, Final residual = 0.00154444, No Iterations 4
time step continuity errors : sum local = 0.0711232, global = -0.0138327, cumulative = 1.23996
smoothSolver:  Solving for epsilon, Initial residual = 0.0044649, Final residual = 0.000382392, No Iterations 3

smoothSolver:  Solving for k, Initial residual = 0.00542865, Final residual = 0.000426261, No Iterations 4
ExecutionTime = 1.28 s  ClockTime = 2 s

Time = 78

smoothSolver:  Solving for Ux, Initial residual = 0.00369705, Final residual = 0.00024479, No Iterations 6
smoothSolver:  Solving for Uy, Initial residual = 0.0208353, Final residual = 0.00154568, No Iterations 6
GAMG:  Solving for p, Initial residual = 0.0178767, Final residual = 0.00154952, No Iterations 4
time step continuity errors : sum local = 0.0710622, global = -0.0134812, cumulative = 1.22648
smoothSolver:  Solving for epsilon, Initial residual = 0.00442631, Final residual = 0.000382174, No Iterations 3
smoothSolver:  Solving for k, Initial residual = 0.0054192, Final residual = 0.000429204, No Iterations 4
ExecutionTime = 1.3 s  ClockTime = 2 s

Time = 79


smoothSolver:  Solving for Ux, Initial residual = 0.00370007, Final residual = 0.000244754, No Iterations 6
smoothSolver:  Solving for Uy, Initial residual = 0.0210212, Final residual = 0.0015581, No Iterations 6

GAMG:  Solving for p, Initial residual = 0.0183627, Final residual = 0.00154126, No Iterations 4
time step continuity errors : sum local = 0.0710119, global = -0.0132937, cumulative = 1.21319

smoothSolver:  Solving for epsilon, Initial residual = 0.00440939, Final residual = 0.000385354, No Iterations 3
smoothSolver:  Solving for k, Initial residual = 0.00534771, Final residual = 0.000426612, No Iterations 4
ExecutionTime = 1.31 s  ClockTime = 2 s

Time = 80


smoothSolver:  Solving for Ux, Initial residual = 0.00369574, Final residual = 0.0002447, No Iterations 6
smoothSolver:  Solving for Uy, Initial residual = 0.0211479, Final residual = 0.00157066, No Iterations 6
GAMG:  Solving for p, Initial residual = 0.0178536, Final residual = 0.00153613, No Iterations 4
time step continuity errors : sum local = 0.0707087, global = -0.0130394, cumulative = 1.20015

smoothSolver:  Solving for epsilon, Initial residual = 0.00439626, Final residual = 0.000387944, No Iterations 3

smoothSolver:  Solving for k, Initial residual = 0.00532768, Final residual = 0.000428277, No Iterations 4
ExecutionTime = 1.33 s  ClockTime = 2 s

Time = 81

smoothSolver:  Solving for Ux, Initial residual = 0.00370077, Final residual = 0.000244708, No Iterations 6
smoothSolver:  Solving for Uy, Initial residual = 0.0213588, Final residual = 0.00158362, No Iterations 6
GAMG:  Solving for p, Initial residual = 0.018464, Final residual = 0.00150949, No Iterations 4
time step continuity errors : sum local = 0.0692111, global = -0.0128919, cumulative = 1.18726
smoothSolver:  Solving for epsilon, Initial residual = 0.00438287, Final residual = 0.000391564, No Iterations 3

smoothSolver:  Solving for k, Initial residual = 0.00530089, Final residual = 0.000429939, No Iterations 4
ExecutionTime = 1.34 s  ClockTime = 2 s

Time = 82


smoothSolver:  Solving for Ux, Initial residual = 0.00369394, Final residual = 0.000244542, No Iterations 6
smoothSolver:  Solving for Uy, Initial residual = 0.0214897, Final residual = 0.00159689, No Iterations 6

GAMG:  Solving for p, Initial residual = 0.0179405, Final residual = 0.00148098, No Iterations 4
time step continuity errors : sum local = 0.0681818, global = -0.0128848, cumulative = 1.17437
smoothSolver:  Solving for epsilon, Initial residual = 0.00437492, Final residual = 0.000394159, No Iterations 3
smoothSolver:  Solving for k, Initial residual = 0.00528454, Final residual = 0.000431987, No Iterations 4
ExecutionTime = 1.36 s  ClockTime = 2 s

Time = 83


smoothSolver:  Solving for Ux, Initial residual = 0.00369677, Final residual = 0.000244478, No Iterations 6
smoothSolver:  Solving for Uy, Initial residual = 0.0216871, Final residual = 0.00161065, No Iterations 6

GAMG:  Solving for p, Initial residual = 0.0182495, Final residual = 0.00145129, No Iterations 4
time step continuity errors : sum local = 0.0668621, global = -0.0129074, cumulative = 1.16147
smoothSolver:  Solving for epsilon, Initial residual = 0.00434304, Final residual = 0.000396031, No Iterations 3
smoothSolver:  Solving for k, Initial residual = 0.00524362, Final residual = 0.000432296, No Iterations 4
ExecutionTime = 1.37 s  ClockTime = 2 s

Time = 84

smoothSolver:  Solving for Ux, Initial residual = 0.00369024, Final residual = 0.000244343, No Iterations 6
smoothSolver:  Solving for Uy, Initial residual = 0.0218401, Final residual = 0.00162476, No Iterations 6

GAMG:  Solving for p, Initial residual = 0.0179296, Final residual = 0.00144458, No Iterations 4
time step continuity errors : sum local = 0.066122, global = -0.0130572, cumulative = 1.14841
smoothSolver:  Solving for epsilon, Initial residual = 0.00432497, Final residual = 0.00039661, No Iterations 3
smoothSolver:  Solving for k, Initial residual = 0.00522427, Final residual = 0.000434479, No Iterations 4
ExecutionTime = 1.39 s  ClockTime = 2 s

Time = 85


smoothSolver:  Solving for Ux, Initial residual = 0.00369233, Final residual = 0.000244123, No Iterations 6
smoothSolver:  Solving for Uy, Initial residual = 0.0220593, Final residual = 0.00163981, No Iterations 6
GAMG:  Solving for p, Initial residual = 0.0182372, Final residual = 0.00143945, No Iterations 4
time step continuity errors : sum local = 0.0663161, global = -0.0131217, cumulative = 1.13529
smoothSolver:  Solving for epsilon, Initial residual = 0.00430631, Final residual = 0.000399519, No Iterations 3

smoothSolver:  Solving for k, Initial residual = 0.00519234, Final residual = 0.000435453, No Iterations 4
ExecutionTime = 1.4 s  ClockTime = 2 s

Time = 86


smoothSolver:  Solving for Ux, Initial residual = 0.00368328, Final residual = 0.000243863, No Iterations 6
smoothSolver:  Solving for Uy, Initial residual = 0.0222062, Final residual = 0.00165476, No Iterations 6

GAMG:  Solving for p, Initial residual = 0.0177246, Final residual = 0.00144092, No Iterations 4
time step continuity errors : sum local = 0.0663647, global = -0.0133371, cumulative = 1.12195
smoothSolver:  Solving for epsilon, Initial residual = 0.00430209, Final residual = 0.000401376, No Iterations 3

smoothSolver:  Solving for k, Initial residual = 0.00519681, Final residual = 0.00043923, No Iterations 4
ExecutionTime = 1.42 s  ClockTime = 2 s

Time = 87


smoothSolver:  Solving for Ux, Initial residual = 0.00368379, Final residual = 0.000243606, No Iterations 6
smoothSolver:  Solving for Uy, Initial residual = 0.0224523, Final residual = 0.00167033, No Iterations 6

GAMG:  Solving for p, Initial residual = 0.0178642, Final residual = 0.00147741, No Iterations 4
time step continuity errors : sum local = 0.0675615, global = -0.0133697, cumulative = 1.10858
smoothSolver:  Solving for epsilon, Initial residual = 0.00426623, Final residual = 0.000402032, No Iterations 3
smoothSolver:  Solving for k, Initial residual = 0.00515942, Final residual = 0.000439903, No Iterations 4
ExecutionTime = 1.44 s  ClockTime = 2 s

Time = 88

smoothSolver:  Solving for Ux, Initial residual = 0.00367152, Final residual = 0.000243259, No Iterations 6
smoothSolver:  Solving for Uy, Initial residual = 0.0226235, Final residual = 0.00168689, No Iterations 6
GAMG:  Solving for p, Initial residual = 0.0174085, Final residual = 0.00148334, No Iterations 4

time step continuity errors : sum local = 0.068215, global = -0.0136541, cumulative = 1.09493
smoothSolver:  Solving for epsilon, Initial residual = 0.00427384, Final residual = 0.000404084, No Iterations 3
smoothSolver:  Solving for k, Initial residual = 0.00515123, Final residual = 0.000442089, No Iterations 4
ExecutionTime = 1.45 s  ClockTime = 2 s

Time = 89


smoothSolver:  Solving for Ux, Initial residual = 0.00366984, Final residual = 0.000242888, No Iterations 6
smoothSolver:  Solving for Uy, Initial residual = 0.0228323, Final residual = 0.00170341, No Iterations 6

GAMG:  Solving for p, Initial residual = 0.0166354, Final residual = 0.00148846, No Iterations 4
time step continuity errors : sum local = 0.0685583, global = -0.0140239, cumulative = 1.0809
smoothSolver:  Solving for epsilon, Initial residual = 0.00422411, Final residual = 0.000403386, No Iterations 3

smoothSolver:  Solving for k, Initial residual = 0.00513384, Final residual = 0.000443961, No Iterations 4
ExecutionTime = 1.47 s  ClockTime = 2 s

Time = 90

smoothSolver:  Solving for Ux, Initial residual = 0.0036565, Final residual = 0.000242473, No Iterations 6
smoothSolver:  Solving for Uy, Initial residual = 0.0230215, Final residual = 0.00172062, No Iterations 6
GAMG:  Solving for p, Initial residual = 0.0163083, Final residual = 0.0015245, No Iterations 4
time step continuity errors : sum local = 0.0698271, global = -0.0140285, cumulative = 1.06687

smoothSolver:  Solving for epsilon, Initial residual = 0.00421485, Final residual = 0.000404694, No Iterations 3
smoothSolver:  Solving for k, Initial residual = 0.00511391, Final residual = 0.000445835, No Iterations 4
ExecutionTime = 1.48 s  ClockTime = 2 s

Time = 91


smoothSolver:  Solving for Ux, Initial residual = 0.00364687, Final residual = 0.000242059, No Iterations 6
smoothSolver:  Solving for Uy, Initial residual = 0.0232172, Final residual = 0.00173833, No Iterations 6

GAMG:  Solving for p, Initial residual = 0.016018, Final residual = 0.00154493, No Iterations 4

time step continuity errors : sum local = 0.0713199, global = -0.0143105, cumulative = 1.05256

smoothSolver:  Solving for epsilon, Initial residual = 0.00418455, Final residual = 0.000404602, No Iterations 3
smoothSolver:  Solving for k, Initial residual = 0.00512293, Final residual = 0.000449146, No Iterations 4
ExecutionTime = 1.5 s  ClockTime = 2 s

Time = 92


smoothSolver:  Solving for Ux, Initial residual = 0.00363717, Final residual = 0.000241552, No Iterations 6
smoothSolver:  Solving for Uy, Initial residual = 0.0234204, Final residual = 0.0017548, No Iterations 6
GAMG:  Solving for p, Initial residual = 0.015615, Final residual = 0.00126713, No Iterations 5
time step continuity errors : sum local = 0.0584842, global = 0.0134016, cumulative = 1.06597
smoothSolver:  Solving for epsilon, Initial residual = 0.00416583, Final residual = 0.000404589, No Iterations 3
smoothSolver:  Solving for k, Initial residual = 0.00509622, Final residual = 0.000449941, No Iterations 4
ExecutionTime = 1.52 s  ClockTime = 2 s

Time = 93


smoothSolver:  Solving for Ux, Initial residual = 0.00363149, Final residual = 0.000240739, No Iterations 6

smoothSolver:  Solving for Uy, Initial residual = 0.023692, Final residual = 0.00177344, No Iterations 6

GAMG:  Solving for p, Initial residual = 0.0152743, Final residual = 0.00125166, No Iterations 4
time step continuity errors : sum local = 0.0572003, global = -0.0144761, cumulative = 1.05149

smoothSolver:  Solving for epsilon, Initial residual = 0.0041462, Final residual = 0.000404004, No Iterations 3

smoothSolver:  Solving for k, Initial residual = 0.00511002, Final residual = 0.000453725, No Iterations 4
ExecutionTime = 1.53 s  ClockTime = 2 s

Time = 94


smoothSolver:  Solving for Ux, Initial residual = 0.00361883, Final residual = 0.000240282, No Iterations 6
smoothSolver:  Solving for Uy, Initial residual = 0.0239313, Final residual = 0.00179413, No Iterations 6
GAMG:  Solving for p, Initial residual = 0.0150392, Final residual = 0.00119191, No Iterations 5
time step continuity errors : sum local = 0.054895, global = 0.0114421, cumulative = 1.06293
smoothSolver:  Solving for epsilon, Initial residual = 0.00411956, Final residual = 0.000402727, No Iterations 3
smoothSolver:  Solving for k, Initial residual = 0.00508578, Final residual = 0.000454102, No Iterations 4
ExecutionTime = 1.55 s  ClockTime = 2 s

Time = 95


smoothSolver:  Solving for Ux, Initial residual = 0.0036121, Final residual = 0.000239967, No Iterations 6
smoothSolver:  Solving for Uy, Initial residual = 0.0241433, Final residual = 0.00181129, No Iterations 6

GAMG:  Solving for p, Initial residual = 0.0149525, Final residual = 0.00130823, No Iterations 4
time step continuity errors : sum local = 0.0600686, global = -0.0146004, cumulative = 1.04833

smoothSolver:  Solving for epsilon, Initial residual = 0.00410605, Final residual = 0.000402091, No Iterations 3
smoothSolver:  Solving for k, Initial residual = 0.0051064, Final residual = 0.000457913, No Iterations 4
ExecutionTime = 1.56 s  ClockTime = 2 s

Time = 96


smoothSolver:  Solving for Ux, Initial residual = 0.00359987, Final residual = 0.000239178, No Iterations 6
smoothSolver:  Solving for Uy, Initial residual = 0.0243665, Final residual = 0.00182814, No Iterations 6
GAMG:  Solving for p, Initial residual = 0.0147874, Final residual = 0.00127186, No Iterations 5
time step continuity errors : sum local = 0.0581809, global = 0.0120984, cumulative = 1.06043
smoothSolver:  Solving for epsilon, Initial residual = 0.00408626, Final residual = 0.000400848, No Iterations 3

smoothSolver:  Solving for k, Initial residual = 0.00506527, Final residual = 0.000456387, No Iterations 4
ExecutionTime = 1.59 s  ClockTime = 2 s

Time = 97

smoothSolver:  Solving for Ux, Initial residual = 0.00358963, Final residual = 0.000238607, No Iterations 6
smoothSolver:  Solving for Uy, Initial residual = 0.0245982, Final residual = 0.00184594, No Iterations 6

GAMG:  Solving for p, Initial residual = 0.0148698, Final residual = 0.00134569, No Iterations 4
time step continuity errors : sum local = 0.0617714, global = -0.0149123, cumulative = 1.04552

smoothSolver:  Solving for epsilon, Initial residual = 0.004069, Final residual = 0.000399088, No Iterations 3

smoothSolver:  Solving for k, Initial residual = 0.00507036, Final residual = 0.000458255, No Iterations 4
ExecutionTime = 1.6 s  ClockTime = 2 s

Time = 98

smoothSolver:  Solving for Ux, Initial residual = 0.00357296, Final residual = 0.000237643, No Iterations 6

smoothSolver:  Solving for Uy, Initial residual = 0.0248011, Final residual = 0.00186348, No Iterations 6

GAMG:  Solving for p, Initial residual = 0.0146165, Final residual = 0.00131849, No Iterations 5
time step continuity errors : sum local = 0.0604536, global = 0.0128311, cumulative = 1.05835
smoothSolver:  Solving for epsilon, Initial residual = 0.00403874, Final residual = 0.000396864, No Iterations 3
smoothSolver:  Solving for k, Initial residual = 0.00506309, Final residual = 0.000459403, No Iterations 4
ExecutionTime = 1.62 s  ClockTime = 2 s

Time = 99


smoothSolver:  Solving for Ux, Initial residual = 0.00356108, Final residual = 0.00023707, No Iterations 6

smoothSolver:  Solving for Uy, Initial residual = 0.0250468, Final residual = 0.00188086, No Iterations 6

GAMG:  Solving for p, Initial residual = 0.0146509, Final residual = 0.00138178, No Iterations 4
time step continuity errors : sum local = 0.0627869, global = -0.0147907, cumulative = 1.04356

smoothSolver:  Solving for epsilon, Initial residual = 0.00401835, Final residual = 0.000393845, No Iterations 3
smoothSolver:  Solving for k, Initial residual = 0.00508795, Final residual = 0.000462498, No Iterations 4
ExecutionTime = 1.63 s  ClockTime = 2 s

Time = 100


smoothSolver:  Solving for Ux, Initial residual = 0.00354394, Final residual = 0.000236008, No Iterations 6

smoothSolver:  Solving for Uy, Initial residual = 0.0252625, Final residual = 0.00189916, No Iterations 6

GAMG:  Solving for p, Initial residual = 0.0146005, Final residual = 0.00135087, No Iterations 5
time step continuity errors : sum local = 0.0617111, global = 0.0128142, cumulative = 1.05637

smoothSolver:  Solving for epsilon, Initial residual = 0.00398202, Final residual = 0.000390657, No Iterations 3

smoothSolver:  Solving for k, Initial residual = 0.00508131, Final residual = 0.000462778, No Iterations 4

ExecutionTime = 1.69 s  ClockTime = 2 s

streamLine streamlines write:
    seeded 10 particles

    Tracks:20
    Total samples:12075
    Writing data to "/home/foam/OpenFoamTool/openFOAMTool/example/pitzDaily/postProcessing/sets/streamlines/100"

Time = 101


smoothSolver:  Solving for Ux, Initial residual = 0.00352989, Final residual = 0.000235432, No Iterations 6
smoothSolver:  Solving for Uy, Initial residual = 0.0254801, Final residual = 0.0019155, No Iterations 6
GAMG:  Solving for p, Initial residual = 0.0145678, Final residual = 0.00140557, No Iterations 4
time step continuity errors : sum local = 0.0638781, global = -0.0145594, cumulative = 1.04181
smoothSolver:  Solving for epsilon, Initial residual = 0.0039737, Final residual = 0.000388857, No Iterations 3
smoothSolver:  Solving for k, Initial residual = 0.00508448, Final residual = 0.000463861, No Iterations 4
ExecutionTime = 1.79 s  ClockTime = 2 s

Time = 102


smoothSolver:  Solving for Ux, Initial residual = 0.0035117, Final residual = 0.000234268, No Iterations 6

smoothSolver:  Solving for Uy, Initial residual = 0.0257121, Final residual = 0.0019328, No Iterations 6

GAMG:  Solving for p, Initial residual = 0.0145247, Final residual = 0.00137211, No Iterations 5

time step continuity errors : sum local = 0.0620802, global = 0.0125407, cumulative = 1.05435

smoothSolver:  Solving for epsilon, Initial residual = 0.00395061, Final residual = 0.000386153, No Iterations 3

smoothSolver:  Solving for k, Initial residual = 0.00509328, Final residual = 0.000464899, No Iterations 4
ExecutionTime = 1.81 s  ClockTime = 2 s

Time = 103

smoothSolver:  Solving for Ux, Initial residual = 0.00349723, Final residual = 0.000233665, No Iterations 6
smoothSolver:  Solving for Uy, Initial residual = 0.0259322, Final residual = 0.00195053, No Iterations 6

GAMG:  Solving for p, Initial residual = 0.0146435, Final residual = 0.00140077, No Iterations 4
time step continuity errors : sum local = 0.0634436, global = -0.0139947, cumulative = 1.04036
smoothSolver:  Solving for epsilon, Initial residual = 0.00393081, Final residual = 0.000382948, No Iterations 3
smoothSolver:  Solving for k, Initial residual = 0.00510969, Final residual = 0.000466706, No Iterations 4
ExecutionTime = 1.82 s  ClockTime = 2 s

Time = 104

smoothSolver:  Solving for Ux, Initial residual = 0.00347682, Final residual = 0.000232493, No Iterations 6
smoothSolver:  Solving for Uy, Initial residual = 0.0261296, Final residual = 0.00196637, No Iterations 6

GAMG:  Solving for p, Initial residual = 0.0144154, Final residual = 0.00135743, No Iterations 5
time step continuity errors : sum local = 0.0613117, global = 0.0119473, cumulative = 1.05231

smoothSolver:  Solving for epsilon, Initial residual = 0.00391445, Final residual = 0.000380266, No Iterations 3
smoothSolver:  Solving for k, Initial residual = 0.00510364, Final residual = 0.000466172, No Iterations 4
ExecutionTime = 1.84 s  ClockTime = 2 s

Time = 105


smoothSolver:  Solving for Ux, Initial residual = 0.00346187, Final residual = 0.00023186, No Iterations 6
smoothSolver:  Solving for Uy, Initial residual = 0.0263595, Final residual = 0.00198313, No Iterations 6

GAMG:  Solving for p, Initial residual = 0.0144309, Final residual = 0.0013944, No Iterations 4
time step continuity errors : sum local = 0.0624755, global = -0.0134174, cumulative = 1.03889

smoothSolver:  Solving for epsilon, Initial residual = 0.00390958, Final residual = 0.000377713, No Iterations 3
smoothSolver:  Solving for k, Initial residual = 0.00512571, Final residual = 0.000468086, No Iterations 4
ExecutionTime = 1.85 s  ClockTime = 2 s

Time = 106


smoothSolver:  Solving for Ux, Initial residual = 0.00344096, Final residual = 0.000230676, No Iterations 6
smoothSolver:  Solving for Uy, Initial residual = 0.0265555, Final residual = 0.00199911, No Iterations 6

GAMG:  Solving for p, Initial residual = 0.0145123, Final residual = 0.00133057, No Iterations 5
time step continuity errors : sum local = 0.0598267, global = 0.011229, cumulative = 1.05012

smoothSolver:  Solving for epsilon, Initial residual = 0.00388813, Final residual = 0.000375307, No Iterations 3
smoothSolver:  Solving for k, Initial residual = 0.00513823, Final residual = 0.000468685, No Iterations 4
ExecutionTime = 1.87 s  ClockTime = 2 s

Time = 107


smoothSolver:  Solving for Ux, Initial residual = 0.00342602, Final residual = 0.000230112, No Iterations 6
smoothSolver:  Solving for Uy, Initial residual = 0.026759, Final residual = 0.00201582, No Iterations 6
GAMG:  Solving for p, Initial residual = 0.0144012, Final residual = 0.00133563, No Iterations 4
time step continuity errors : sum local = 0.059684, global = -0.0124863, cumulative = 1.03763
smoothSolver:  Solving for epsilon, Initial residual = 0.00387763, Final residual = 0.000371634, No Iterations 3
smoothSolver:  Solving for k, Initial residual = 0.00515417, Final residual = 0.000469411, No Iterations 4
ExecutionTime = 1.88 s  ClockTime = 2 s

Time = 108


smoothSolver:  Solving for Ux, Initial residual = 0.00340336, Final residual = 0.000228909, No Iterations 6
smoothSolver:  Solving for Uy, Initial residual = 0.0269677, Final residual = 0.00203095, No Iterations 6

GAMG:  Solving for p, Initial residual = 0.0143826, Final residual = 0.00128561, No Iterations 5
time step continuity errors : sum local = 0.0571661, global = 0.010168, cumulative = 1.0478

smoothSolver:  Solving for epsilon, Initial residual = 0.00385406, Final residual = 0.000368555, No Iterations 3

smoothSolver:  Solving for k, Initial residual = 0.00515559, Final residual = 0.000468878, No Iterations 4
ExecutionTime = 1.9 s  ClockTime = 2 s

Time = 109

smoothSolver:  Solving for Ux, Initial residual = 0.00339029, Final residual = 0.000228501, No Iterations 6
smoothSolver:  Solving for Uy, Initial residual = 0.0271711, Final residual = 0.00204928, No Iterations 6
GAMG:  Solving for p, Initial residual = 0.0146052, Final residual = 0.001265, No Iterations 4
time step continuity errors : sum local = 0.0562566, global = -0.0113913, cumulative = 1.03641

smoothSolver:  Solving for epsilon, Initial residual = 0.00385336, Final residual = 0.000368628, No Iterations 3
smoothSolver:  Solving for k, Initial residual = 0.00518097, Final residual = 0.000469956, No Iterations 4
ExecutionTime = 1.91 s  ClockTime = 2 s

Time = 110

smoothSolver:  Solving for Ux, Initial residual = 0.00336625, Final residual = 0.00022732, No Iterations 6
smoothSolver:  Solving for Uy, Initial residual = 0.0273419, Final residual = 0.00206412, No Iterations 6

GAMG:  Solving for p, Initial residual = 0.0143609, Final residual = 0.00120375, No Iterations 5
time step continuity errors : sum local = 0.0533067, global = 0.0089131, cumulative = 1.04532

smoothSolver:  Solving for epsilon, Initial residual = 0.00383018, Final residual = 0.000365365, No Iterations 3
smoothSolver:  Solving for k, Initial residual = 0.00519811, Final residual = 0.000470478, No Iterations 4
ExecutionTime = 1.93 s  ClockTime = 2 s

Time = 111


smoothSolver:  Solving for Ux, Initial residual = 0.00335402, Final residual = 0.00022704, No Iterations 6

smoothSolver:  Solving for Uy, Initial residual = 0.0275642, Final residual = 0.00208189, No Iterations 6
GAMG:  Solving for p, Initial residual = 0.0144847, Final residual = 0.00115717, No Iterations 4
time step continuity errors : sum local = 0.0508652, global = -0.0104136, cumulative = 1.03491

smoothSolver:  Solving for epsilon, Initial residual = 0.00383239, Final residual = 0.000364366, No Iterations 3

smoothSolver:  Solving for k, Initial residual = 0.0052085, Final residual = 0.000470093, No Iterations 4
ExecutionTime = 1.94 s  ClockTime = 2 s

Time = 112


smoothSolver:  Solving for Ux, Initial residual = 0.00333097, Final residual = 0.000226074, No Iterations 6

smoothSolver:  Solving for Uy, Initial residual = 0.0277531, Final residual = 0.00209877, No Iterations 6
GAMG:  Solving for p, Initial residual = 0.0146248, Final residual = 0.00111308, No Iterations 5
time step continuity errors : sum local = 0.0489508, global = 0.00704013, cumulative = 1.04195
smoothSolver:  Solving for epsilon, Initial residual = 0.00381143, Final residual = 0.000359134, No Iterations 3
smoothSolver:  Solving for k, Initial residual = 0.00521439, Final residual = 0.000469174, No Iterations 4
ExecutionTime = 1.95 s  ClockTime = 2 s

Time = 113


smoothSolver:  Solving for Ux, Initial residual = 0.00332058, Final residual = 0.000226071, No Iterations 6
smoothSolver:  Solving for Uy, Initial residual = 0.0279269, Final residual = 0.00211508, No Iterations 6

GAMG:  Solving for p, Initial residual = 0.0145915, Final residual = 0.00114984, No Iterations 4
time step continuity errors : sum local = 0.050351, global = -0.00959839, cumulative = 1.03235
smoothSolver:  Solving for epsilon, Initial residual = 0.00382039, Final residual = 0.0003595, No Iterations 3

smoothSolver:  Solving for k, Initial residual = 0.00523358, Final residual = 0.000468901, No Iterations 4
ExecutionTime = 1.97 s  ClockTime = 2 s

Time = 114


smoothSolver:  Solving for Ux, Initial residual = 0.00330167, Final residual = 0.000225324, No Iterations 6
smoothSolver:  Solving for Uy, Initial residual = 0.0281191, Final residual = 0.00212997, No Iterations 6

GAMG:  Solving for p, Initial residual = 0.0147129, Final residual = 0.00107079, No Iterations 5

time step continuity errors : sum local = 0.0466666, global = 0.00624605, cumulative = 1.03859
smoothSolver:  Solving for epsilon, Initial residual = 0.0038055, Final residual = 0.00035587, No Iterations 3
smoothSolver:  Solving for k, Initial residual = 0.00524632, Final residual = 0.000468463, No Iterations 4
ExecutionTime = 1.98 s  ClockTime = 3 s

Time = 115

smoothSolver:  Solving for Ux, Initial residual = 0.00329564, Final residual = 0.000225513, No Iterations 6
smoothSolver:  Solving for Uy, Initial residual = 0.0283043, Final residual = 0.00214671, No Iterations 6
GAMG:  Solving for p, Initial residual = 0.0151251, Final residual = 0.00149369, No Iterations 3
time step continuity errors : sum local = 0.0653191, global = 0.00664266, cumulative = 1.04524

smoothSolver:  Solving for epsilon, Initial residual = 0.00379842, Final residual = 0.000353332, No Iterations 3

[...]
time step continuity errors : sum local = 0.00715175, global = 0.000327878, cumulative = 0.957648
smoothSolver:  Solving for epsilon, Initial residual = 0.000324751, Final residual = 2.37394e-05, No Iterations 3
smoothSolver:  Solving for k, Initial residual = 0.000558794, Final residual = 3.45252e-05, No Iterations 4
ExecutionTime = 4.38 s  ClockTime = 5 s

Time = 260


smoothSolver:  Solving for Ux, Initial residual = 0.000304322, Final residual = 2.0943e-05, No Iterations 6

smoothSolver:  Solving for Uy, Initial residual = 0.00249369, Final residual = 0.000173841, No Iterations 6
GAMG:  Solving for p, Initial residual = 0.00224849, Final residual = 0.00015971, No Iterations 5
time step continuity errors : sum local = 0.00678221, global = 0.000300071, cumulative = 0.957948
smoothSolver:  Solving for epsilon, Initial residual = 0.000316715, Final residual = 2.30868e-05, No Iterations 3
smoothSolver:  Solving for k, Initial residual = 0.000544778, Final residual = 3.34731e-05, No Iterations 4
ExecutionTime = 4.4 s  ClockTime = 5 s

Time = 261


smoothSolver:  Solving for Ux, Initial residual = 0.000297578, Final residual = 2.04493e-05, No Iterations 6

smoothSolver:  Solving for Uy, Initial residual = 0.00243816, Final residual = 0.000166395, No Iterations 6
GAMG:  Solving for p, Initial residual = 0.00342235, Final residual = 0.000326218, No Iterations 3
time step continuity errors : sum local = 0.0138805, global = 0.000821821, cumulative = 0.95877

smoothSolver:  Solving for epsilon, Initial residual = 0.000307962, Final residual = 2.22233e-05, No Iterations 3
smoothSolver:  Solving for k, Initial residual = 0.000528943, Final residual = 3.24081e-05, No Iterations 4
ExecutionTime = 4.41 s  ClockTime = 5 s

Time = 262


smoothSolver:  Solving for Ux, Initial residual = 0.00028876, Final residual = 1.99517e-05, No Iterations 6
smoothSolver:  Solving for Uy, Initial residual = 0.00233361, Final residual = 0.000158681, No Iterations 6
GAMG:  Solving for p, Initial residual = 0.00244556, Final residual = 0.000234837, No Iterations 4
time step continuity errors : sum local = 0.00999061, global = -0.000681422, cumulative = 0.958088
smoothSolver:  Solving for epsilon, Initial residual = 0.000297583, Final residual = 2.14944e-05, No Iterations 3

smoothSolver:  Solving for k, Initial residual = 0.000513977, Final residual = 3.14033e-05, No Iterations 4
ExecutionTime = 4.43 s  ClockTime = 5 s

Time = 263


smoothSolver:  Solving for Ux, Initial residual = 0.000280129, Final residual = 1.93422e-05, No Iterations 6

smoothSolver:  Solving for Uy, Initial residual = 0.00222899, Final residual = 0.000151105, No Iterations 6

GAMG:  Solving for p, Initial residual = 0.00225108, Final residual = 0.00016239, No Iterations 5
time step continuity errors : sum local = 0.00690088, global = 0.000427535, cumulative = 0.958516

smoothSolver:  Solving for epsilon, Initial residual = 0.000288407, Final residual = 2.05703e-05, No Iterations 3
smoothSolver:  Solving for k, Initial residual = 0.000497681, Final residual = 3.02017e-05, No Iterations 4
ExecutionTime = 4.45 s  ClockTime = 5 s

Time = 264


smoothSolver:  Solving for Ux, Initial residual = 0.000272879, Final residual = 1.88192e-05, No Iterations 6
smoothSolver:  Solving for Uy, Initial residual = 0.00214652, Final residual = 0.000143711, No Iterations 6
GAMG:  Solving for p, Initial residual = 0.00215499, Final residual = 0.000197396, No Iterations 4
time step continuity errors : sum local = 0.00838578, global = -0.000613786, cumulative = 0.957902
smoothSolver:  Solving for epsilon, Initial residual = 0.000279945, Final residual = 1.9913e-05, No Iterations 3

smoothSolver:  Solving for k, Initial residual = 0.000481795, Final residual = 2.92949e-05, No Iterations 4
ExecutionTime = 4.46 s  ClockTime = 5 s

Time = 265


smoothSolver:  Solving for Ux, Initial residual = 0.000267244, Final residual = 1.83597e-05, No Iterations 6
smoothSolver:  Solving for Uy, Initial residual = 0.00204237, Final residual = 0.000136777, No Iterations 6

GAMG:  Solving for p, Initial residual = 0.00300911, Final residual = 0.000215489, No Iterations 4
time step continuity errors : sum local = 0.00918639, global = -0.000704087, cumulative = 0.957198
smoothSolver:  Solving for epsilon, Initial residual = 0.000267997, Final residual = 1.89139e-05, No Iterations 3
smoothSolver:  Solving for k, Initial residual = 0.000464219, Final residual = 2.81264e-05, No Iterations 4
ExecutionTime = 4.48 s  ClockTime = 5 s

Time = 266


smoothSolver:  Solving for Ux, Initial residual = 0.000259697, Final residual = 1.78041e-05, No Iterations 6

smoothSolver:  Solving for Uy, Initial residual = 0.00195388, Final residual = 0.000130129, No Iterations 6

GAMG:  Solving for p, Initial residual = 0.00202432, Final residual = 0.000163731, No Iterations 5
time step continuity errors : sum local = 0.00696425, global = 0.00075093, cumulative = 0.957949
smoothSolver:  Solving for epsilon, Initial residual = 0.000255762, Final residual = 1.80745e-05, No Iterations 3

smoothSolver:  Solving for k, Initial residual = 0.0004474, Final residual = 2.71013e-05, No Iterations 4
ExecutionTime = 4.49 s  ClockTime = 5 s

Time = 267

smoothSolver:  Solving for Ux, Initial residual = 0.00025157, Final residual = 1.7104e-05, No Iterations 6
smoothSolver:  Solving for Uy, Initial residual = 0.00189504, Final residual = 0.000123602, No Iterations 6
GAMG:  Solving for p, Initial residual = 0.00216402, Final residual = 0.000170365, No Iterations 4
time step continuity errors : sum local = 0.0072394, global = -0.000530418, cumulative = 0.957418

smoothSolver:  Solving for epsilon, Initial residual = 0.000248751, Final residual = 1.72815e-05, No Iterations 3
smoothSolver:  Solving for k, Initial residual = 0.000432121, Final residual = 2.60983e-05, No Iterations 4
ExecutionTime = 4.51 s  ClockTime = 5 s

Time = 268


smoothSolver:  Solving for Ux, Initial residual = 0.000244491, Final residual = 1.65372e-05, No Iterations 6
smoothSolver:  Solving for Uy, Initial residual = 0.00180771, Final residual = 0.000117266, No Iterations 6
GAMG:  Solving for p, Initial residual = 0.00239821, Final residual = 0.000176148, No Iterations 4
time step continuity errors : sum local = 0.00749531, global = -0.000593021, cumulative = 0.956825

smoothSolver:  Solving for epsilon, Initial residual = 0.000238552, Final residual = 1.65691e-05, No Iterations 3

smoothSolver:  Solving for k, Initial residual = 0.000415039, Final residual = 2.51059e-05, No Iterations 4
ExecutionTime = 4.53 s  ClockTime = 5 s

Time = 269

smoothSolver:  Solving for Ux, Initial residual = 0.000236856, Final residual = 1.59211e-05, No Iterations 6
smoothSolver:  Solving for Uy, Initial residual = 0.0017176, Final residual = 0.000112049, No Iterations 6
GAMG:  Solving for p, Initial residual = 0.00191517, Final residual = 0.000171516, No Iterations 4
time step continuity errors : sum local = 0.00728619, global = -0.000530263, cumulative = 0.956295
smoothSolver:  Solving for epsilon, Initial residual = 0.000231961, Final residual = 1.57733e-05, No Iterations 3
smoothSolver:  Solving for k, Initial residual = 0.000400232, Final residual = 2.40811e-05, No Iterations 4
ExecutionTime = 4.54 s  ClockTime = 5 s

Time = 270


smoothSolver:  Solving for Ux, Initial residual = 0.000229327, Final residual = 1.52555e-05, No Iterations 6
smoothSolver:  Solving for Uy, Initial residual = 0.00165757, Final residual = 0.000165092, No Iterations 5

GAMG:  Solving for p, Initial residual = 0.00221365, Final residual = 0.000163787, No Iterations 4
time step continuity errors : sum local = 0.00696141, global = -0.000572126, cumulative = 0.955723
smoothSolver:  Solving for epsilon, Initial residual = 0.000222217, Final residual = 1.50171e-05, No Iterations 3

smoothSolver:  Solving for k, Initial residual = 0.00038413, Final residual = 2.3136e-05, No Iterations 4
ExecutionTime = 4.55 s  ClockTime = 5 s

Time = 271

smoothSolver:  Solving for Ux, Initial residual = 0.000220541, Final residual = 1.45277e-05, No Iterations 6
smoothSolver:  Solving for Uy, Initial residual = 0.00161941, Final residual = 0.000160807, No Iterations 5
GAMG:  Solving for p, Initial residual = 0.00212231, Final residual = 0.000152535, No Iterations 4
time step continuity errors : sum local = 0.00648562, global = -0.00046306, cumulative = 0.95526

smoothSolver:  Solving for epsilon, Initial residual = 0.000211614, Final residual = 1.43369e-05, No Iterations 3

smoothSolver:  Solving for k, Initial residual = 0.000369029, Final residual = 2.22021e-05, No Iterations 4
ExecutionTime = 4.57 s  ClockTime = 5 s

Time = 272


smoothSolver:  Solving for Ux, Initial residual = 0.000211439, Final residual = 1.38532e-05, No Iterations 6
smoothSolver:  Solving for Uy, Initial residual = 0.00154599, Final residual = 0.000101504, No Iterations 6

GAMG:  Solving for p, Initial residual = 0.00172799, Final residual = 0.000143256, No Iterations 4
time step continuity errors : sum local = 0.00608214, global = -1.96974e-06, cumulative = 0.955258
smoothSolver:  Solving for epsilon, Initial residual = 0.000202954, Final residual = 1.367e-05, No Iterations 3

smoothSolver:  Solving for k, Initial residual = 0.000354643, Final residual = 2.13855e-05, No Iterations 4
ExecutionTime = 4.58 s  ClockTime = 5 s

Time = 273


smoothSolver:  Solving for Ux, Initial residual = 0.000204241, Final residual = 1.32491e-05, No Iterations 6
smoothSolver:  Solving for Uy, Initial residual = 0.00149574, Final residual = 0.000148342, No Iterations 5

GAMG:  Solving for p, Initial residual = 0.00216316, Final residual = 0.000191937, No Iterations 3
time step continuity errors : sum local = 0.00814542, global = -0.0009037, cumulative = 0.954354

smoothSolver:  Solving for epsilon, Initial residual = 0.000197245, Final residual = 1.3051e-05, No Iterations 3
smoothSolver:  Solving for k, Initial residual = 0.00034083, Final residual = 2.05516e-05, No Iterations 4
ExecutionTime = 4.6 s  ClockTime = 5 s

Time = 274


smoothSolver:  Solving for Ux, Initial residual = 0.000196313, Final residual = 1.26767e-05, No Iterations 6
smoothSolver:  Solving for Uy, Initial residual = 0.00142392, Final residual = 9.37685e-05, No Iterations 6

GAMG:  Solving for p, Initial residual = 0.0017839, Final residual = 0.000152266, No Iterations 4
time step continuity errors : sum local = 0.00646499, global = 0.000754006, cumulative = 0.955108
smoothSolver:  Solving for epsilon, Initial residual = 0.000190066, Final residual = 1.25281e-05, No Iterations 3
smoothSolver:  Solving for k, Initial residual = 0.000328565, Final residual = 1.98075e-05, No Iterations 4
ExecutionTime = 4.61 s  ClockTime = 5 s

Time = 275


smoothSolver:  Solving for Ux, Initial residual = 0.000188104, Final residual = 1.87254e-05, No Iterations 5
smoothSolver:  Solving for Uy, Initial residual = 0.00136383, Final residual = 9.04941e-05, No Iterations 6
GAMG:  Solving for p, Initial residual = 0.00241491, Final residual = 0.000196267, No Iterations 3
time step continuity errors : sum local = 0.00833103, global = -0.00131073, cumulative = 0.953797

smoothSolver:  Solving for epsilon, Initial residual = 0.000186394, Final residual = 1.19653e-05, No Iterations 3
smoothSolver:  Solving for k, Initial residual = 0.0003161, Final residual = 1.90398e-05, No Iterations 4
ExecutionTime = 4.63 s  ClockTime = 5 s

Time = 276


smoothSolver:  Solving for Ux, Initial residual = 0.000182105, Final residual = 1.8053e-05, No Iterations 5
smoothSolver:  Solving for Uy, Initial residual = 0.00133794, Final residual = 0.00013347, No Iterations 5
GAMG:  Solving for p, Initial residual = 0.00189637, Final residual = 0.000146347, No Iterations 4
time step continuity errors : sum local = 0.00620635, global = 0.000728045, cumulative = 0.954525
smoothSolver:  Solving for epsilon, Initial residual = 0.000179054, Final residual = 1.14915e-05, No Iterations 3
smoothSolver:  Solving for k, Initial residual = 0.000303671, Final residual = 1.8346e-05, No Iterations 4
ExecutionTime = 4.64 s  ClockTime = 5 s

Time = 277


smoothSolver:  Solving for Ux, Initial residual = 0.000172653, Final residual = 1.70559e-05, No Iterations 5
smoothSolver:  Solving for Uy, Initial residual = 0.00127502, Final residual = 8.61679e-05, No Iterations 6

GAMG:  Solving for p, Initial residual = 0.00158766, Final residual = 0.000149188, No Iterations 4
time step continuity errors : sum local = 0.00631742, global = 0.000794246, cumulative = 0.95532
smoothSolver:  Solving for epsilon, Initial residual = 0.000171311, Final residual = 1.10316e-05, No Iterations 3

smoothSolver:  Solving for k, Initial residual = 0.000291802, Final residual = 1.76798e-05, No Iterations 4
ExecutionTime = 4.66 s  ClockTime = 5 s

Time = 278


smoothSolver:  Solving for Ux, Initial residual = 0.000165566, Final residual = 1.63298e-05, No Iterations 5
smoothSolver:  Solving for Uy, Initial residual = 0.00122355, Final residual = 8.38208e-05, No Iterations 6

GAMG:  Solving for p, Initial residual = 0.00161634, Final residual = 0.00014414, No Iterations 4
time step continuity errors : sum local = 0.00609881, global = 0.000724843, cumulative = 0.956045

smoothSolver:  Solving for epsilon, Initial residual = 0.000166028, Final residual = 1.07355e-05, No Iterations 3
smoothSolver:  Solving for k, Initial residual = 0.000280869, Final residual = 1.71165e-05, No Iterations 4
ExecutionTime = 4.68 s  ClockTime = 5 s

Time = 279

smoothSolver:  Solving for Ux, Initial residual = 0.000159671, Final residual = 1.56655e-05, No Iterations 5
smoothSolver:  Solving for Uy, Initial residual = 0.00119739, Final residual = 8.21538e-05, No Iterations 6
GAMG:  Solving for p, Initial residual = 0.0022205, Final residual = 0.000189703, No Iterations 3
time step continuity errors : sum local = 0.00804014, global = -0.000713539, cumulative = 0.955331
smoothSolver:  Solving for epsilon, Initial residual = 0.000162263, Final residual = 1.02804e-05, No Iterations 3

smoothSolver:  Solving for k, Initial residual = 0.000270453, Final residual = 1.64803e-05, No Iterations 4
ExecutionTime = 4.69 s  ClockTime = 5 s

Time = 280


smoothSolver:  Solving for Ux, Initial residual = 0.000153674, Final residual = 1.50617e-05, No Iterations 5
smoothSolver:  Solving for Uy, Initial residual = 0.00115796, Final residual = 8.0514e-05, No Iterations 6

GAMG:  Solving for p, Initial residual = 0.00139462, Final residual = 0.000107635, No Iterations 5
time step continuity errors : sum local = 0.00455339, global = -0.000336883, cumulative = 0.954994
smoothSolver:  Solving for epsilon, Initial residual = 0.000157427, Final residual = 9.99558e-06, No Iterations 3
smoothSolver:  Solving for k, Initial residual = 0.000261073, Final residual = 1.59488e-05, No Iterations 4
ExecutionTime = 4.71 s  ClockTime = 5 s

Time = 281


smoothSolver:  Solving for Ux, Initial residual = 0.000146422, Final residual = 1.42463e-05, No Iterations 5
smoothSolver:  Solving for Uy, Initial residual = 0.00113344, Final residual = 7.8808e-05, No Iterations 6

GAMG:  Solving for p, Initial residual = 0.00161203, Final residual = 0.000129429, No Iterations 4
time step continuity errors : sum local = 0.00546637, global = 0.000626583, cumulative = 0.955621
smoothSolver:  Solving for epsilon, Initial residual = 0.000156073, Final residual = 9.76399e-06, No Iterations 3

smoothSolver:  Solving for k, Initial residual = 0.00025378, Final residual = 1.5493e-05, No Iterations 4
ExecutionTime = 4.72 s  ClockTime = 5 s

Time = 282

smoothSolver:  Solving for Ux, Initial residual = 0.000141132, Final residual = 1.37808e-05, No Iterations 5
smoothSolver:  Solving for Uy, Initial residual = 0.00110005, Final residual = 7.67805e-05, No Iterations 6

GAMG:  Solving for p, Initial residual = 0.00212509, Final residual = 0.000170888, No Iterations 3
time step continuity errors : sum local = 0.00723124, global = -0.000679828, cumulative = 0.954941

smoothSolver:  Solving for epsilon, Initial residual = 0.00015154, Final residual = 9.52937e-06, No Iterations 3

smoothSolver:  Solving for k, Initial residual = 0.000245234, Final residual = 1.50031e-05, No Iterations 4
ExecutionTime = 4.74 s  ClockTime = 5 s

Time = 283

smoothSolver:  Solving for Ux, Initial residual = 0.000136349, Final residual = 1.338e-05, No Iterations 5
smoothSolver:  Solving for Uy, Initial residual = 0.00108313, Final residual = 7.46122e-05, No Iterations 6

GAMG:  Solving for p, Initial residual = 0.00129769, Final residual = 9.20488e-05, No Iterations 5

time step continuity errors : sum local = 0.00388671, global = -0.000308742, cumulative = 0.954632
smoothSolver:  Solving for epsilon, Initial residual = 0.000145585, Final residual = 9.36e-06, No Iterations 3
smoothSolver:  Solving for k, Initial residual = 0.000238575, Final residual = 1.46186e-05, No Iterations 4
ExecutionTime = 4.75 s  ClockTime = 5 s

Time = 284


smoothSolver:  Solving for Ux, Initial residual = 0.000130404, Final residual = 1.27585e-05, No Iterations 5
smoothSolver:  Solving for Uy, Initial residual = 0.00106224, Final residual = 7.21863e-05, No Iterations 6
GAMG:  Solving for p, Initial residual = 0.00148579, Final residual = 0.000145588, No Iterations 3
time step continuity errors : sum local = 0.00614052, global = -0.000543615, cumulative = 0.954089
smoothSolver:  Solving for epsilon, Initial residual = 0.000142862, Final residual = 9.30145e-06, No Iterations 3

smoothSolver:  Solving for k, Initial residual = 0.000232802, Final residual = 1.42949e-05, No Iterations 4
ExecutionTime = 4.76 s  ClockTime = 5 s

Time = 285


smoothSolver:  Solving for Ux, Initial residual = 0.000126937, Final residual = 1.25598e-05, No Iterations 5
smoothSolver:  Solving for Uy, Initial residual = 0.00102891, Final residual = 6.9747e-05, No Iterations 6

GAMG:  Solving for p, Initial residual = 0.00200136, Final residual = 0.000169313, No Iterations 3
time step continuity errors : sum local = 0.00715479, global = -0.000651817, cumulative = 0.953437
smoothSolver:  Solving for epsilon, Initial residual = 0.000140184, Final residual = 9.09965e-06, No Iterations 3

smoothSolver:  Solving for k, Initial residual = 0.000226303, Final residual = 1.38468e-05, No Iterations 4
ExecutionTime = 4.78 s  ClockTime = 5 s

Time = 286


smoothSolver:  Solving for Ux, Initial residual = 0.000122675, Final residual = 1.22033e-05, No Iterations 5

smoothSolver:  Solving for Uy, Initial residual = 0.00100161, Final residual = 6.68549e-05, No Iterations 6
GAMG:  Solving for p, Initial residual = 0.00117665, Final residual = 0.000111752, No Iterations 4
time step continuity errors : sum local = 0.00471427, global = 0.000557289, cumulative = 0.953994
smoothSolver:  Solving for epsilon, Initial residual = 0.00013804, Final residual = 9.07007e-06, No Iterations 3
smoothSolver:  Solving for k, Initial residual = 0.000222455, Final residual = 1.3548e-05, No Iterations 4
ExecutionTime = 4.79 s  ClockTime = 5 s

Time = 287

smoothSolver:  Solving for Ux, Initial residual = 0.000118782, Final residual = 1.18298e-05, No Iterations 5
smoothSolver:  Solving for Uy, Initial residual = 0.00097542, Final residual = 6.48861e-05, No Iterations 6

GAMG:  Solving for p, Initial residual = 0.00146436, Final residual = 0.000141446, No Iterations 3
time step continuity errors : sum local = 0.00595839, global = -0.000563764, cumulative = 0.95343

smoothSolver:  Solving for epsilon, Initial residual = 0.000137491, Final residual = 8.9887e-06, No Iterations 3

smoothSolver:  Solving for k, Initial residual = 0.000217479, Final residual = 1.32518e-05, No Iterations 4
ExecutionTime = 4.81 s  ClockTime = 5 s


SIMPLE solution converged in 287 iterations


streamLine streamlines write:
    seeded 10 particles

    Tracks:20
    Total samples:12040

    Writing data to "/home/foam/OpenFoamTool/openFOAMTool/example/pitzDaily/postProcessing/sets/streamlines/287"

End


